1
 SUMMARY VOLUMETRIC BUDGET FOR GSFLOW 
 DATE: 10 07 1990              CUMULATIVE TIME STEP:       7
 MODFLOW STRESS PERIOD      2     CURRENT TIME STEP:       7     ITERATIONS:       7

 -----------------------------------------------------------------------------------

   CUMULATIVE VOLUMES               L**3   RATES FOR THIS TIME STEP           L**3/T
   ------------------                      ------------------------

                                     IN                                         IN
                                     --                                         --
        PRECIPITATION =                            PRECIPITATION =                  
           STREAMFLOW =                               STREAMFLOW =                  
     GW BOUNDARY FLOW =                         GW BOUNDARY FLOW =                  


                                    OUT                                        OUT
                                    ---                                        ---
   EVAPOTRANSPIRATION =         384997.90     EVAPOTRANSPIRATION =          11800.14
           STREAMFLOW =          46311.09             STREAMFLOW =           8184.28
     GW BOUNDARY FLOW =            252.80       GW BOUNDARY FLOW =             36.30

   INFLOWS - OUTFLOWS =        -431561.78     INFLOWS - OUTFLOWS =         -20020.73
             --------                                   --------

 TOTAL STORAGE CHANGE =        -430092.43         STORAGE CHANGE =         -19994.04
       --------------                             --------------
         LAND SURFACE =                             LAND SURFACE =                  
            SOIL ZONE =         -33647.94              SOIL ZONE =           -949.06
     UNSATURATED ZONE =        -502271.26       UNSATURATED ZONE =         -33315.93
       SATURATED ZONE =         105826.77         SATURATED ZONE =          14270.95

 OVERALL BUDGET ERROR =          -1469.35           BUDGET ERROR =            -26.68


  PERCENT DISCREPANCY =             -0.34    PERCENT DISCREPANCY =             -0.13



1
 SUMMARY VOLUMETRIC BUDGET FOR GSFLOW 
 DATE: 10 14 1990              CUMULATIVE TIME STEP:      14
 MODFLOW STRESS PERIOD      2     CURRENT TIME STEP:      14     ITERATIONS:       6

 -----------------------------------------------------------------------------------

   CUMULATIVE VOLUMES               L**3   RATES FOR THIS TIME STEP           L**3/T
   ------------------                      ------------------------

                                     IN                                         IN
                                     --                                         --
        PRECIPITATION =                            PRECIPITATION =                  
           STREAMFLOW =                               STREAMFLOW =                  
     GW BOUNDARY FLOW =                         GW BOUNDARY FLOW =                  


                                    OUT                                        OUT
                                    ---                                        ---
   EVAPOTRANSPIRATION =         665193.76     EVAPOTRANSPIRATION =          42313.10
           STREAMFLOW =         101471.34             STREAMFLOW =           7477.71
     GW BOUNDARY FLOW =            506.65       GW BOUNDARY FLOW =             36.24

   INFLOWS - OUTFLOWS =        -767171.75     INFLOWS - OUTFLOWS =         -49827.05
             --------                                   --------

 TOTAL STORAGE CHANGE =        -765417.42         STORAGE CHANGE =         -49806.36
       --------------                             --------------
         LAND SURFACE =                             LAND SURFACE =                  
            SOIL ZONE =         -58651.68              SOIL ZONE =          -4416.62
     UNSATURATED ZONE =        -877077.56       UNSATURATED ZONE =         -52127.47
       SATURATED ZONE =         170311.81         SATURATED ZONE =           6737.73

 OVERALL BUDGET ERROR =          -1754.33           BUDGET ERROR =            -20.69


  PERCENT DISCREPANCY =             -0.23    PERCENT DISCREPANCY =             -0.04



1
 SUMMARY VOLUMETRIC BUDGET FOR GSFLOW 
 DATE: 10 21 1990              CUMULATIVE TIME STEP:      21
 MODFLOW STRESS PERIOD      2     CURRENT TIME STEP:      21     ITERATIONS:       6

 -----------------------------------------------------------------------------------

   CUMULATIVE VOLUMES               L**3   RATES FOR THIS TIME STEP           L**3/T
   ------------------                      ------------------------

                                     IN                                         IN
                                     --                                         --
        PRECIPITATION =         188432.87          PRECIPITATION =                  
           STREAMFLOW =                               STREAMFLOW =                  
     GW BOUNDARY FLOW =                         GW BOUNDARY FLOW =                  


                                    OUT                                        OUT
                                    ---                                        ---
   EVAPOTRANSPIRATION =         815444.65     EVAPOTRANSPIRATION =          41709.13
           STREAMFLOW =         164527.69             STREAMFLOW =          10159.31
     GW BOUNDARY FLOW =            760.84       GW BOUNDARY FLOW =             36.37

   INFLOWS - OUTFLOWS =        -792300.32     INFLOWS - OUTFLOWS =         -51904.82
             --------                                   --------

 TOTAL STORAGE CHANGE =        -790494.11         STORAGE CHANGE =         -51909.53
       --------------                             --------------
         LAND SURFACE =          18885.57           LAND SURFACE =         -43558.49
            SOIL ZONE =          48188.83              SOIL ZONE =           2053.01
     UNSATURATED ZONE =       -1090962.03       UNSATURATED ZONE =         -21361.65
       SATURATED ZONE =         233393.51         SATURATED ZONE =          10957.60

 OVERALL BUDGET ERROR =          -1806.21           BUDGET ERROR =              4.71


  PERCENT DISCREPANCY =             -0.18    PERCENT DISCREPANCY =              0.01



1
 SUMMARY VOLUMETRIC BUDGET FOR GSFLOW 
 DATE: 10 28 1990              CUMULATIVE TIME STEP:      28
 MODFLOW STRESS PERIOD      2     CURRENT TIME STEP:      28     ITERATIONS:       6

 -----------------------------------------------------------------------------------

   CUMULATIVE VOLUMES               L**3   RATES FOR THIS TIME STEP           L**3/T
   ------------------                      ------------------------

                                     IN                                         IN
                                     --                                         --
        PRECIPITATION =         188432.87          PRECIPITATION =                  
           STREAMFLOW =                               STREAMFLOW =                  
     GW BOUNDARY FLOW =                         GW BOUNDARY FLOW =                  


                                    OUT                                        OUT
                                    ---                                        ---
   EVAPOTRANSPIRATION =         943786.25     EVAPOTRANSPIRATION =          11825.75
           STREAMFLOW =         226198.14             STREAMFLOW =           8957.64
     GW BOUNDARY FLOW =           1014.04       GW BOUNDARY FLOW =             36.13

   INFLOWS - OUTFLOWS =        -982565.56     INFLOWS - OUTFLOWS =         -20819.51
             --------                                   --------

 TOTAL STORAGE CHANGE =        -980747.63         STORAGE CHANGE =         -20821.49
       --------------                             --------------
         LAND SURFACE =                             LAND SURFACE =                  
            SOIL ZONE =          19150.20              SOIL ZONE =          -3436.32
     UNSATURATED ZONE =       -1274636.50       UNSATURATED ZONE =         -23283.91
       SATURATED ZONE =         274738.67         SATURATED ZONE =           5898.74

 OVERALL BUDGET ERROR =          -1817.94           BUDGET ERROR =              1.98


  PERCENT DISCREPANCY =             -0.16    PERCENT DISCREPANCY =              0.01



1
 SUMMARY VOLUMETRIC BUDGET FOR GSFLOW 
 DATE: 11 04 1990              CUMULATIVE TIME STEP:       4
 MODFLOW STRESS PERIOD      3     CURRENT TIME STEP:      35     ITERATIONS:       6

 -----------------------------------------------------------------------------------

   CUMULATIVE VOLUMES               L**3   RATES FOR THIS TIME STEP           L**3/T
   ------------------                      ------------------------

                                     IN                                         IN
                                     --                                         --
        PRECIPITATION =         703113.06          PRECIPITATION =                  
           STREAMFLOW =                               STREAMFLOW =                  
     GW BOUNDARY FLOW =                         GW BOUNDARY FLOW =                  


                                    OUT                                        OUT
                                    ---                                        ---
   EVAPOTRANSPIRATION =        1004361.12     EVAPOTRANSPIRATION =          26280.47
           STREAMFLOW =         296575.66             STREAMFLOW =          10532.42
     GW BOUNDARY FLOW =           1267.08       GW BOUNDARY FLOW =             36.14

   INFLOWS - OUTFLOWS =        -599090.80     INFLOWS - OUTFLOWS =         -36849.02
             --------                                   --------

 TOTAL STORAGE CHANGE =        -597294.33         STORAGE CHANGE =         -36853.70
       --------------                             --------------
         LAND SURFACE =         132159.65           LAND SURFACE =        -160480.33
            SOIL ZONE =         356557.31              SOIL ZONE =         134353.49
     UNSATURATED ZONE =       -1420410.75       UNSATURATED ZONE =         -20102.65
       SATURATED ZONE =         334399.47         SATURATED ZONE =           9375.79

 OVERALL BUDGET ERROR =          -1796.47           BUDGET ERROR =              4.68


  PERCENT DISCREPANCY =             -0.14    PERCENT DISCREPANCY =              0.01



1
 SUMMARY VOLUMETRIC BUDGET FOR GSFLOW 
 DATE: 11 11 1990              CUMULATIVE TIME STEP:      11
 MODFLOW STRESS PERIOD      3     CURRENT TIME STEP:      42     ITERATIONS:       6

 -----------------------------------------------------------------------------------

   CUMULATIVE VOLUMES               L**3   RATES FOR THIS TIME STEP           L**3/T
   ------------------                      ------------------------

                                     IN                                         IN
                                     --                                         --
        PRECIPITATION =         703113.06          PRECIPITATION =                  
           STREAMFLOW =                               STREAMFLOW =                  
     GW BOUNDARY FLOW =                         GW BOUNDARY FLOW =                  


                                    OUT                                        OUT
                                    ---                                        ---
   EVAPOTRANSPIRATION =        1081513.94     EVAPOTRANSPIRATION =          12129.05
           STREAMFLOW =         367325.53             STREAMFLOW =           9629.51
     GW BOUNDARY FLOW =           1519.18       GW BOUNDARY FLOW =             35.93

   INFLOWS - OUTFLOWS =        -747245.59     INFLOWS - OUTFLOWS =         -21794.48
             --------                                   --------

 TOTAL STORAGE CHANGE =        -745470.09         STORAGE CHANGE =         -21797.17
       --------------                             --------------
         LAND SURFACE =            595.09           LAND SURFACE =          -1416.54
            SOIL ZONE =         429482.37              SOIL ZONE =          -5401.63
     UNSATURATED ZONE =       -1559899.31       UNSATURATED ZONE =         -19902.53
       SATURATED ZONE =         384351.76         SATURATED ZONE =           4923.53

 OVERALL BUDGET ERROR =          -1775.50           BUDGET ERROR =              2.69


  PERCENT DISCREPANCY =             -0.12    PERCENT DISCREPANCY =              0.01



1
 SUMMARY VOLUMETRIC BUDGET FOR GSFLOW 
 DATE: 11 18 1990              CUMULATIVE TIME STEP:      18
 MODFLOW STRESS PERIOD      3     CURRENT TIME STEP:      49     ITERATIONS:       6

 -----------------------------------------------------------------------------------

   CUMULATIVE VOLUMES               L**3   RATES FOR THIS TIME STEP           L**3/T
   ------------------                      ------------------------

                                     IN                                         IN
                                     --                                         --
        PRECIPITATION =         747883.35          PRECIPITATION =                  
           STREAMFLOW =                               STREAMFLOW =                  
     GW BOUNDARY FLOW =                         GW BOUNDARY FLOW =                  


                                    OUT                                        OUT
                                    ---                                        ---
   EVAPOTRANSPIRATION =        1153918.39     EVAPOTRANSPIRATION =           5054.35
           STREAMFLOW =         438900.33             STREAMFLOW =          10652.83
     GW BOUNDARY FLOW =           1770.49       GW BOUNDARY FLOW =             35.88

   INFLOWS - OUTFLOWS =        -846705.86     INFLOWS - OUTFLOWS =         -15743.07
             --------                                   --------

 TOTAL STORAGE CHANGE =        -844946.10         STORAGE CHANGE =         -15746.20
       --------------                             --------------
         LAND SURFACE =           7868.08           LAND SURFACE =          -3691.47
            SOIL ZONE =         411951.55              SOIL ZONE =           -677.81
     UNSATURATED ZONE =       -1693395.30       UNSATURATED ZONE =         -18649.76
       SATURATED ZONE =         428629.58         SATURATED ZONE =           7272.84

 OVERALL BUDGET ERROR =          -1759.76           BUDGET ERROR =              3.14


  PERCENT DISCREPANCY =             -0.11    PERCENT DISCREPANCY =              0.02



1
 SUMMARY VOLUMETRIC BUDGET FOR GSFLOW 
 DATE: 11 25 1990              CUMULATIVE TIME STEP:      25
 MODFLOW STRESS PERIOD      3     CURRENT TIME STEP:      56     ITERATIONS:       6

 -----------------------------------------------------------------------------------

   CUMULATIVE VOLUMES               L**3   RATES FOR THIS TIME STEP           L**3/T
   ------------------                      ------------------------

                                     IN                                         IN
                                     --                                         --
        PRECIPITATION =        1009043.38          PRECIPITATION =         186542.88
           STREAMFLOW =                               STREAMFLOW =                  
     GW BOUNDARY FLOW =                         GW BOUNDARY FLOW =                  


                                    OUT                                        OUT
                                    ---                                        ---
   EVAPOTRANSPIRATION =        1214346.66     EVAPOTRANSPIRATION =           3757.66
           STREAMFLOW =         514654.00             STREAMFLOW =          10733.77
     GW BOUNDARY FLOW =           2021.43       GW BOUNDARY FLOW =             35.79

   INFLOWS - OUTFLOWS =        -721978.71     INFLOWS - OUTFLOWS =         172015.65
             --------                                   --------

 TOTAL STORAGE CHANGE =        -720237.84         STORAGE CHANGE =         172013.42
       --------------                             --------------
         LAND SURFACE =          86180.68           LAND SURFACE =          69567.13
            SOIL ZONE =         536738.93              SOIL ZONE =         114159.33
     UNSATURATED ZONE =       -1821360.15       UNSATURATED ZONE =         -17971.80
       SATURATED ZONE =         478202.71         SATURATED ZONE =           6258.75

 OVERALL BUDGET ERROR =          -1740.87           BUDGET ERROR =              2.24


  PERCENT DISCREPANCY =             -0.10    PERCENT DISCREPANCY =              0.00



1
 SUMMARY VOLUMETRIC BUDGET FOR GSFLOW 
 DATE: 12 02 1990              CUMULATIVE TIME STEP:       2
 MODFLOW STRESS PERIOD      4     CURRENT TIME STEP:      63     ITERATIONS:       6

 -----------------------------------------------------------------------------------

   CUMULATIVE VOLUMES               L**3   RATES FOR THIS TIME STEP           L**3/T
   ------------------                      ------------------------

                                     IN                                         IN
                                     --                                         --
        PRECIPITATION =        1449284.55          PRECIPITATION =                  
           STREAMFLOW =                               STREAMFLOW =                  
     GW BOUNDARY FLOW =                         GW BOUNDARY FLOW =                  


                                    OUT                                        OUT
                                    ---                                        ---
   EVAPOTRANSPIRATION =        1220842.32     EVAPOTRANSPIRATION =            234.69
           STREAMFLOW =         591584.53             STREAMFLOW =          11040.13
     GW BOUNDARY FLOW =           2271.91       GW BOUNDARY FLOW =             35.77

   INFLOWS - OUTFLOWS =        -365414.22     INFLOWS - OUTFLOWS =         -11310.58
             --------                                   --------

 TOTAL STORAGE CHANGE =        -363688.73         STORAGE CHANGE =         -11312.52
       --------------                             --------------
         LAND SURFACE =         486845.62           LAND SURFACE =           -339.04
            SOIL ZONE =         570719.26              SOIL ZONE =            234.57
     UNSATURATED ZONE =       -1944547.10       UNSATURATED ZONE =         -17301.94
       SATURATED ZONE =         523293.50         SATURATED ZONE =           6093.89

 OVERALL BUDGET ERROR =          -1725.49           BUDGET ERROR =              1.94


  PERCENT DISCREPANCY =             -0.10    PERCENT DISCREPANCY =              0.02



1
 SUMMARY VOLUMETRIC BUDGET FOR GSFLOW 
 DATE: 12 09 1990              CUMULATIVE TIME STEP:       9
 MODFLOW STRESS PERIOD      4     CURRENT TIME STEP:      70     ITERATIONS:       6

 -----------------------------------------------------------------------------------

   CUMULATIVE VOLUMES               L**3   RATES FOR THIS TIME STEP           L**3/T
   ------------------                      ------------------------

                                     IN                                         IN
                                     --                                         --
        PRECIPITATION =        1449284.55          PRECIPITATION =                  
           STREAMFLOW =                               STREAMFLOW =                  
     GW BOUNDARY FLOW =                         GW BOUNDARY FLOW =                  


                                    OUT                                        OUT
                                    ---                                        ---
   EVAPOTRANSPIRATION =        1296678.27     EVAPOTRANSPIRATION =          13848.59
           STREAMFLOW =         668515.89             STREAMFLOW =          10750.84
     GW BOUNDARY FLOW =           2521.86       GW BOUNDARY FLOW =             35.64

   INFLOWS - OUTFLOWS =        -518431.46     INFLOWS - OUTFLOWS =         -24635.07
             --------                                   --------

 TOTAL STORAGE CHANGE =        -516716.28         STORAGE CHANGE =         -24635.85
       --------------                             --------------
         LAND SURFACE =          67215.41           LAND SURFACE =         -45889.70
            SOIL ZONE =         918830.81              SOIL ZONE =          33773.75
     UNSATURATED ZONE =       -2062708.28       UNSATURATED ZONE =         -16523.32
       SATURATED ZONE =         559945.77         SATURATED ZONE =           4003.42

 OVERALL BUDGET ERROR =          -1715.17           BUDGET ERROR =              0.78


  PERCENT DISCREPANCY =             -0.09    PERCENT DISCREPANCY =              0.00



1
 SUMMARY VOLUMETRIC BUDGET FOR GSFLOW 
 DATE: 12 16 1990              CUMULATIVE TIME STEP:      16
 MODFLOW STRESS PERIOD      4     CURRENT TIME STEP:      77     ITERATIONS:       5

 -----------------------------------------------------------------------------------

   CUMULATIVE VOLUMES               L**3   RATES FOR THIS TIME STEP           L**3/T
   ------------------                      ------------------------

                                     IN                                         IN
                                     --                                         --
        PRECIPITATION =        1804962.84          PRECIPITATION =                  
           STREAMFLOW =                               STREAMFLOW =                  
     GW BOUNDARY FLOW =                         GW BOUNDARY FLOW =                  


                                    OUT                                        OUT
                                    ---                                        ---
   EVAPOTRANSPIRATION =        1324955.14     EVAPOTRANSPIRATION =                  
           STREAMFLOW =         746985.05             STREAMFLOW =          11395.59
     GW BOUNDARY FLOW =           2771.24       GW BOUNDARY FLOW =             35.61

   INFLOWS - OUTFLOWS =        -269748.59     INFLOWS - OUTFLOWS =         -11431.19
             --------                                   --------

 TOTAL STORAGE CHANGE =        -268043.93         STORAGE CHANGE =         -11432.15
       --------------                             --------------
         LAND SURFACE =         252566.26           LAND SURFACE =                  
            SOIL ZONE =        1065041.45              SOIL ZONE =            148.67
     UNSATURATED ZONE =       -2176325.43       UNSATURATED ZONE =         -15968.64
       SATURATED ZONE =         590673.79         SATURATED ZONE =           4387.82

 OVERALL BUDGET ERROR =          -1704.66           BUDGET ERROR =              0.96


  PERCENT DISCREPANCY =             -0.08    PERCENT DISCREPANCY =              0.01



1
 SUMMARY VOLUMETRIC BUDGET FOR GSFLOW 
 DATE: 12 23 1990              CUMULATIVE TIME STEP:      23
 MODFLOW STRESS PERIOD      4     CURRENT TIME STEP:      84     ITERATIONS:       6

 -----------------------------------------------------------------------------------

   CUMULATIVE VOLUMES               L**3   RATES FOR THIS TIME STEP           L**3/T
   ------------------                      ------------------------

                                     IN                                         IN
                                     --                                         --
        PRECIPITATION =        2276236.55          PRECIPITATION =                  
           STREAMFLOW =                               STREAMFLOW =                  
     GW BOUNDARY FLOW =              0.08       GW BOUNDARY FLOW =              0.04


                                    OUT                                        OUT
                                    ---                                        ---
   EVAPOTRANSPIRATION =        1326012.74     EVAPOTRANSPIRATION =                  
           STREAMFLOW =         827180.42             STREAMFLOW =          11495.92
     GW BOUNDARY FLOW =           3020.26       GW BOUNDARY FLOW =             35.57

   INFLOWS - OUTFLOWS =         120023.21     INFLOWS - OUTFLOWS =         -11531.45
             --------                                   --------

 TOTAL STORAGE CHANGE =         121726.80         STORAGE CHANGE =         -11531.30
       --------------                             --------------
         LAND SURFACE =         722784.34           LAND SURFACE =                  
            SOIL ZONE =        1066127.16              SOIL ZONE =            158.79
     UNSATURATED ZONE =       -2285761.40       UNSATURATED ZONE =         -15387.84
       SATURATED ZONE =         618576.71         SATURATED ZONE =           3697.75

 OVERALL BUDGET ERROR =          -1703.59           BUDGET ERROR =             -0.15


  PERCENT DISCREPANCY =             -0.07    PERCENT DISCREPANCY =             -0.00



1
 SUMMARY VOLUMETRIC BUDGET FOR GSFLOW 
 DATE: 12 30 1990              CUMULATIVE TIME STEP:      30
 MODFLOW STRESS PERIOD      4     CURRENT TIME STEP:      91     ITERATIONS:       5

 -----------------------------------------------------------------------------------

   CUMULATIVE VOLUMES               L**3   RATES FOR THIS TIME STEP           L**3/T
   ------------------                      ------------------------

                                     IN                                         IN
                                     --                                         --
        PRECIPITATION =        2276236.55          PRECIPITATION =                  
           STREAMFLOW =                               STREAMFLOW =                  
     GW BOUNDARY FLOW =              0.77       GW BOUNDARY FLOW =              0.14


                                    OUT                                        OUT
                                    ---                                        ---
   EVAPOTRANSPIRATION =        1326580.25     EVAPOTRANSPIRATION =                  
           STREAMFLOW =         908049.76             STREAMFLOW =          11595.53
     GW BOUNDARY FLOW =           3269.36       GW BOUNDARY FLOW =             35.60

   INFLOWS - OUTFLOWS =          38337.96     INFLOWS - OUTFLOWS =         -11630.99
             --------                                   --------

 TOTAL STORAGE CHANGE =          40049.31         STORAGE CHANGE =         -11628.89
       --------------                             --------------
         LAND SURFACE =         722216.94           LAND SURFACE =                  
            SOIL ZONE =        1067283.06              SOIL ZONE =            170.39
     UNSATURATED ZONE =       -2391285.63       UNSATURATED ZONE =         -14845.60
       SATURATED ZONE =         641834.94         SATURATED ZONE =           3046.32

 OVERALL BUDGET ERROR =          -1711.35           BUDGET ERROR =             -2.09


  PERCENT DISCREPANCY =             -0.08    PERCENT DISCREPANCY =             -0.02



1
 SUMMARY VOLUMETRIC BUDGET FOR GSFLOW 
 DATE: 01 06 1991              CUMULATIVE TIME STEP:       6
 MODFLOW STRESS PERIOD      5     CURRENT TIME STEP:      98     ITERATIONS:       5

 -----------------------------------------------------------------------------------

   CUMULATIVE VOLUMES               L**3   RATES FOR THIS TIME STEP           L**3/T
   ------------------                      ------------------------

                                     IN                                         IN
                                     --                                         --
        PRECIPITATION =        2276236.55          PRECIPITATION =                  
           STREAMFLOW =                               STREAMFLOW =                  
     GW BOUNDARY FLOW =              2.09       GW BOUNDARY FLOW =              0.22


                                    OUT                                        OUT
                                    ---                                        ---
   EVAPOTRANSPIRATION =        1353581.22     EVAPOTRANSPIRATION =           3180.55
           STREAMFLOW =         989563.61             STREAMFLOW =          11676.92
     GW BOUNDARY FLOW =           3519.23       GW BOUNDARY FLOW =             35.75

   INFLOWS - OUTFLOWS =         -70425.42     INFLOWS - OUTFLOWS =         -14893.00
             --------                                   --------

 TOTAL STORAGE CHANGE =         -68691.66         STORAGE CHANGE =         -14888.89
       --------------                             --------------
         LAND SURFACE =         592099.77           LAND SURFACE =          -8106.31
            SOIL ZONE =        1171666.85              SOIL ZONE =           5108.26
     UNSATURATED ZONE =       -2492875.68       UNSATURATED ZONE =         -14283.10
       SATURATED ZONE =         660417.40         SATURATED ZONE =           2392.26

 OVERALL BUDGET ERROR =          -1733.76           BUDGET ERROR =             -4.11


  PERCENT DISCREPANCY =             -0.07    PERCENT DISCREPANCY =             -0.03



1
 SUMMARY VOLUMETRIC BUDGET FOR GSFLOW 
 DATE: 01 13 1991              CUMULATIVE TIME STEP:      13
 MODFLOW STRESS PERIOD      5     CURRENT TIME STEP:     105     ITERATIONS:       6

 -----------------------------------------------------------------------------------

   CUMULATIVE VOLUMES               L**3   RATES FOR THIS TIME STEP           L**3/T
   ------------------                      ------------------------

                                     IN                                         IN
                                     --                                         --
        PRECIPITATION =        2596386.94          PRECIPITATION =          10327.43
           STREAMFLOW =                               STREAMFLOW =                  
     GW BOUNDARY FLOW =              4.01       GW BOUNDARY FLOW =              0.31


                                    OUT                                        OUT
                                    ---                                        ---
   EVAPOTRANSPIRATION =        1420374.47     EVAPOTRANSPIRATION =          18633.96
           STREAMFLOW =        1071268.53             STREAMFLOW =          11587.66
     GW BOUNDARY FLOW =           3769.44       GW BOUNDARY FLOW =             35.73

   INFLOWS - OUTFLOWS =         100978.52     INFLOWS - OUTFLOWS =         -19929.61
             --------                                   --------

 TOTAL STORAGE CHANGE =         102742.67         STORAGE CHANGE =         -19926.71
       --------------                             --------------
         LAND SURFACE =         529885.07           LAND SURFACE =        -135264.71
            SOIL ZONE =        1489871.61              SOIL ZONE =         127943.84
     UNSATURATED ZONE =       -2590423.49       UNSATURATED ZONE =         -13730.34
       SATURATED ZONE =         673409.48         SATURATED ZONE =           1124.50

 OVERALL BUDGET ERROR =          -1764.15           BUDGET ERROR =             -2.89


  PERCENT DISCREPANCY =             -0.07    PERCENT DISCREPANCY =             -0.01



1
 SUMMARY VOLUMETRIC BUDGET FOR GSFLOW 
 DATE: 01 20 1991              CUMULATIVE TIME STEP:      20
 MODFLOW STRESS PERIOD      5     CURRENT TIME STEP:     112     ITERATIONS:       5

 -----------------------------------------------------------------------------------

   CUMULATIVE VOLUMES               L**3   RATES FOR THIS TIME STEP           L**3/T
   ------------------                      ------------------------

                                     IN                                         IN
                                     --                                         --
        PRECIPITATION =        2596386.94          PRECIPITATION =                  
           STREAMFLOW =                               STREAMFLOW =                  
     GW BOUNDARY FLOW =              6.54       GW BOUNDARY FLOW =              0.40


                                    OUT                                        OUT
                                    ---                                        ---
   EVAPOTRANSPIRATION =        1497506.34     EVAPOTRANSPIRATION =           2455.46
           STREAMFLOW =        1153526.15             STREAMFLOW =          11784.24
     GW BOUNDARY FLOW =           4019.67       GW BOUNDARY FLOW =             35.75

   INFLOWS - OUTFLOWS =         -58658.66     INFLOWS - OUTFLOWS =         -14275.04
             --------                                   --------

 TOTAL STORAGE CHANGE =         -56849.33         STORAGE CHANGE =         -14267.45
       --------------                             --------------
         LAND SURFACE =         356897.60           LAND SURFACE =           -433.81
            SOIL ZONE =        1587696.04              SOIL ZONE =          -1802.66
     UNSATURATED ZONE =       -2684100.70       UNSATURATED ZONE =         -13157.72
       SATURATED ZONE =         682657.72         SATURATED ZONE =           1126.73

 OVERALL BUDGET ERROR =          -1809.33           BUDGET ERROR =             -7.60


  PERCENT DISCREPANCY =             -0.07    PERCENT DISCREPANCY =             -0.05



1
 SUMMARY VOLUMETRIC BUDGET FOR GSFLOW 
 DATE: 01 27 1991              CUMULATIVE TIME STEP:      27
 MODFLOW STRESS PERIOD      5     CURRENT TIME STEP:     119     ITERATIONS:       5

 -----------------------------------------------------------------------------------

   CUMULATIVE VOLUMES               L**3   RATES FOR THIS TIME STEP           L**3/T
   ------------------                      ------------------------

                                     IN                                         IN
                                     --                                         --
        PRECIPITATION =        2596386.94          PRECIPITATION =                  
           STREAMFLOW =                               STREAMFLOW =                  
     GW BOUNDARY FLOW =              9.65       GW BOUNDARY FLOW =              0.48


                                    OUT                                        OUT
                                    ---                                        ---
   EVAPOTRANSPIRATION =        1523390.61     EVAPOTRANSPIRATION =           1704.54
           STREAMFLOW =        1236224.86             STREAMFLOW =          11846.91
     GW BOUNDARY FLOW =           4269.86       GW BOUNDARY FLOW =             35.74

   INFLOWS - OUTFLOWS =        -167488.73     INFLOWS - OUTFLOWS =         -13586.71
             --------                                   --------

 TOTAL STORAGE CHANGE =        -165620.05         STORAGE CHANGE =         -13577.85
       --------------                             --------------
         LAND SURFACE =         323033.09           LAND SURFACE =           -547.84
            SOIL ZONE =        1597413.18              SOIL ZONE =           -949.80
     UNSATURATED ZONE =       -2774272.71       UNSATURATED ZONE =         -12667.56
       SATURATED ZONE =         688206.39         SATURATED ZONE =            587.36

 OVERALL BUDGET ERROR =          -1868.68           BUDGET ERROR =             -8.86


  PERCENT DISCREPANCY =             -0.07    PERCENT DISCREPANCY =             -0.07



1
 SUMMARY VOLUMETRIC BUDGET FOR GSFLOW 
 DATE: 02 03 1991              CUMULATIVE TIME STEP:       3
 MODFLOW STRESS PERIOD      6     CURRENT TIME STEP:     126     ITERATIONS:       5

 -----------------------------------------------------------------------------------

   CUMULATIVE VOLUMES               L**3   RATES FOR THIS TIME STEP           L**3/T
   ------------------                      ------------------------

                                     IN                                         IN
                                     --                                         --
        PRECIPITATION =        3228422.31          PRECIPITATION =          30459.53
           STREAMFLOW =                               STREAMFLOW =                  
     GW BOUNDARY FLOW =             13.31       GW BOUNDARY FLOW =              0.55


                                    OUT                                        OUT
                                    ---                                        ---
   EVAPOTRANSPIRATION =        1630474.07     EVAPOTRANSPIRATION =          21417.61
           STREAMFLOW =        1319285.50             STREAMFLOW =          11891.97
     GW BOUNDARY FLOW =           4519.99       GW BOUNDARY FLOW =             35.73

   INFLOWS - OUTFLOWS =         274156.07     INFLOWS - OUTFLOWS =          -2885.22
             --------                                   --------

 TOTAL STORAGE CHANGE =         276093.66         STORAGE CHANGE =          -2874.85
       --------------                             --------------
         LAND SURFACE =         157683.43           LAND SURFACE =         -26376.35
            SOIL ZONE =        2290391.44              SOIL ZONE =          35776.94
     UNSATURATED ZONE =       -2861150.42       UNSATURATED ZONE =         -12199.29
       SATURATED ZONE =         689169.22         SATURATED ZONE =            -76.16

 OVERALL BUDGET ERROR =          -1937.60           BUDGET ERROR =            -10.36


  PERCENT DISCREPANCY =             -0.06    PERCENT DISCREPANCY =             -0.03



1
 SUMMARY VOLUMETRIC BUDGET FOR GSFLOW 
 DATE: 02 10 1991              CUMULATIVE TIME STEP:      10
 MODFLOW STRESS PERIOD      6     CURRENT TIME STEP:     133     ITERATIONS:       5

 -----------------------------------------------------------------------------------

   CUMULATIVE VOLUMES               L**3   RATES FOR THIS TIME STEP           L**3/T
   ------------------                      ------------------------

                                     IN                                         IN
                                     --                                         --
        PRECIPITATION =        3510173.01          PRECIPITATION =                  
           STREAMFLOW =                               STREAMFLOW =                  
     GW BOUNDARY FLOW =             17.48       GW BOUNDARY FLOW =              0.63


                                    OUT                                        OUT
                                    ---                                        ---
   EVAPOTRANSPIRATION =        1797891.79     EVAPOTRANSPIRATION =          25651.46
           STREAMFLOW =        1401358.71             STREAMFLOW =          11861.41
     GW BOUNDARY FLOW =           4769.97       GW BOUNDARY FLOW =             35.71

   INFLOWS - OUTFLOWS =         306170.02     INFLOWS - OUTFLOWS =         -37547.96
             --------                                   --------

 TOTAL STORAGE CHANGE =         308148.43         STORAGE CHANGE =         -37536.41
       --------------                             --------------
         LAND SURFACE =          75877.11           LAND SURFACE =          -8469.89
            SOIL ZONE =        2488461.66              SOIL ZONE =         -16904.15
     UNSATURATED ZONE =       -2944517.12       UNSATURATED ZONE =         -11727.52
       SATURATED ZONE =         688326.78         SATURATED ZONE =           -434.86

 OVERALL BUDGET ERROR =          -1978.40           BUDGET ERROR =            -11.55


  PERCENT DISCREPANCY =             -0.06    PERCENT DISCREPANCY =             -0.03



1
 SUMMARY VOLUMETRIC BUDGET FOR GSFLOW 
 DATE: 02 17 1991              CUMULATIVE TIME STEP:      17
 MODFLOW STRESS PERIOD      6     CURRENT TIME STEP:     140     ITERATIONS:       5

 -----------------------------------------------------------------------------------

   CUMULATIVE VOLUMES               L**3   RATES FOR THIS TIME STEP           L**3/T
   ------------------                      ------------------------

                                     IN                                         IN
                                     --                                         --
        PRECIPITATION =        3510173.01          PRECIPITATION =                  
           STREAMFLOW =                               STREAMFLOW =                  
     GW BOUNDARY FLOW =             22.16       GW BOUNDARY FLOW =              0.70


                                    OUT                                        OUT
                                    ---                                        ---
   EVAPOTRANSPIRATION =        2040926.71     EVAPOTRANSPIRATION =          23719.99
           STREAMFLOW =        1484662.09             STREAMFLOW =          11919.75
     GW BOUNDARY FLOW =           5019.86       GW BOUNDARY FLOW =             35.67

   INFLOWS - OUTFLOWS =         -20413.49     INFLOWS - OUTFLOWS =         -35674.72
             --------                                   --------

 TOTAL STORAGE CHANGE =         -18345.74         STORAGE CHANGE =         -35661.33
       --------------                             --------------
         LAND SURFACE =          17890.99           LAND SURFACE =          -1143.67
            SOIL ZONE =        2305087.53              SOIL ZONE =         -22417.87
     UNSATURATED ZONE =       -3024354.54       UNSATURATED ZONE =         -11119.29
       SATURATED ZONE =         683030.29         SATURATED ZONE =           -980.50

 OVERALL BUDGET ERROR =          -2067.76           BUDGET ERROR =            -13.39


  PERCENT DISCREPANCY =             -0.06    PERCENT DISCREPANCY =             -0.04



1
 SUMMARY VOLUMETRIC BUDGET FOR GSFLOW 
 DATE: 02 24 1991              CUMULATIVE TIME STEP:      24
 MODFLOW STRESS PERIOD      6     CURRENT TIME STEP:     147     ITERATIONS:       5

 -----------------------------------------------------------------------------------

   CUMULATIVE VOLUMES               L**3   RATES FOR THIS TIME STEP           L**3/T
   ------------------                      ------------------------

                                     IN                                         IN
                                     --                                         --
        PRECIPITATION =        3510173.01          PRECIPITATION =                  
           STREAMFLOW =                               STREAMFLOW =                  
     GW BOUNDARY FLOW =             27.30       GW BOUNDARY FLOW =              0.76


                                    OUT                                        OUT
                                    ---                                        ---
   EVAPOTRANSPIRATION =        2254610.03     EVAPOTRANSPIRATION =          21654.75
           STREAMFLOW =        1566946.47             STREAMFLOW =          11905.54
     GW BOUNDARY FLOW =           5268.86       GW BOUNDARY FLOW =             35.50

   INFLOWS - OUTFLOWS =        -316625.04     INFLOWS - OUTFLOWS =         -33595.02
             --------                                   --------

 TOTAL STORAGE CHANGE =        -314511.11         STORAGE CHANGE =         -33579.93
       --------------                             --------------
         LAND SURFACE =           7435.72           LAND SURFACE =           -217.69
            SOIL ZONE =        2103235.79              SOIL ZONE =         -21203.13
     UNSATURATED ZONE =       -3100544.50       UNSATURATED ZONE =         -10702.80
       SATURATED ZONE =         675361.88         SATURATED ZONE =          -1456.31

 OVERALL BUDGET ERROR =          -2113.93           BUDGET ERROR =            -15.09


  PERCENT DISCREPANCY =             -0.06    PERCENT DISCREPANCY =             -0.04



1
 SUMMARY VOLUMETRIC BUDGET FOR GSFLOW 
 DATE: 03 03 1991              CUMULATIVE TIME STEP:       3
 MODFLOW STRESS PERIOD      7     CURRENT TIME STEP:     154     ITERATIONS:       5

 -----------------------------------------------------------------------------------

   CUMULATIVE VOLUMES               L**3   RATES FOR THIS TIME STEP           L**3/T
   ------------------                      ------------------------

                                     IN                                         IN
                                     --                                         --
        PRECIPITATION =        6220189.63          PRECIPITATION =        1243187.24
           STREAMFLOW =                               STREAMFLOW =                  
     GW BOUNDARY FLOW =             32.90       GW BOUNDARY FLOW =              0.83


                                    OUT                                        OUT
                                    ---                                        ---
   EVAPOTRANSPIRATION =        2406758.15     EVAPOTRANSPIRATION =           8346.31
           STREAMFLOW =        1650010.92             STREAMFLOW =          11819.78
     GW BOUNDARY FLOW =           5516.69       GW BOUNDARY FLOW =             35.32

   INFLOWS - OUTFLOWS =        2157936.78     INFLOWS - OUTFLOWS =        1222986.66
             --------                                   --------

 TOTAL STORAGE CHANGE =        2160152.22         STORAGE CHANGE =        1223003.05
       --------------                             --------------
         LAND SURFACE =        2352423.56           LAND SURFACE =         893797.52
            SOIL ZONE =        2319948.86              SOIL ZONE =         341851.92
     UNSATURATED ZONE =       -3173716.13       UNSATURATED ZONE =         -10287.95
       SATURATED ZONE =         661495.93         SATURATED ZONE =          -2358.45

 OVERALL BUDGET ERROR =          -2215.44           BUDGET ERROR =            -16.38


  PERCENT DISCREPANCY =             -0.04    PERCENT DISCREPANCY =             -0.00



1
 SUMMARY VOLUMETRIC BUDGET FOR GSFLOW 
 DATE: 03 10 1991              CUMULATIVE TIME STEP:      10
 MODFLOW STRESS PERIOD      7     CURRENT TIME STEP:     161     ITERATIONS:       5

 -----------------------------------------------------------------------------------

   CUMULATIVE VOLUMES               L**3   RATES FOR THIS TIME STEP           L**3/T
   ------------------                      ------------------------

                                     IN                                         IN
                                     --                                         --
        PRECIPITATION =        8746030.42          PRECIPITATION =          32888.55
           STREAMFLOW =                               STREAMFLOW =                  
     GW BOUNDARY FLOW =             38.94       GW BOUNDARY FLOW =              0.89


                                    OUT                                        OUT
                                    ---                                        ---
   EVAPOTRANSPIRATION =        2470877.44     EVAPOTRANSPIRATION =           7390.88
           STREAMFLOW =        1759059.74             STREAMFLOW =          12555.86
     GW BOUNDARY FLOW =           5764.08       GW BOUNDARY FLOW =             35.23

   INFLOWS - OUTFLOWS =        4510368.10     INFLOWS - OUTFLOWS =          12907.46
             --------                                   --------

 TOTAL STORAGE CHANGE =        4512661.12         STORAGE CHANGE =          12925.48
       --------------                             --------------
         LAND SURFACE =        2489799.29           LAND SURFACE =         -20139.51
            SOIL ZONE =        4566865.13              SOIL ZONE =          36671.99
     UNSATURATED ZONE =       -3191273.64       UNSATURATED ZONE =          -1395.39
       SATURATED ZONE =         647270.34         SATURATED ZONE =          -2211.61

 OVERALL BUDGET ERROR =          -2293.02           BUDGET ERROR =            -18.02


  PERCENT DISCREPANCY =             -0.03    PERCENT DISCREPANCY =             -0.05



1
 SUMMARY VOLUMETRIC BUDGET FOR GSFLOW 
 DATE: 03 17 1991              CUMULATIVE TIME STEP:      17
 MODFLOW STRESS PERIOD      7     CURRENT TIME STEP:     168     ITERATIONS:       5

 -----------------------------------------------------------------------------------

   CUMULATIVE VOLUMES               L**3   RATES FOR THIS TIME STEP           L**3/T
   ------------------                      ------------------------

                                     IN                                         IN
                                     --                                         --
        PRECIPITATION =        9897129.71          PRECIPITATION =         157865.04
           STREAMFLOW =                               STREAMFLOW =                  
     GW BOUNDARY FLOW =             45.40       GW BOUNDARY FLOW =              0.95


                                    OUT                                        OUT
                                    ---                                        ---
   EVAPOTRANSPIRATION =        2494341.89     EVAPOTRANSPIRATION =           6885.30
           STREAMFLOW =        1848291.44             STREAMFLOW =          12804.95
     GW BOUNDARY FLOW =           6010.25       GW BOUNDARY FLOW =             35.11

   INFLOWS - OUTFLOWS =        5548531.54     INFLOWS - OUTFLOWS =         138140.64
             --------                                   --------

 TOTAL STORAGE CHANGE =        5550934.28         STORAGE CHANGE =         138159.84
       --------------                             --------------
         LAND SURFACE =        3617387.87           LAND SURFACE =         151296.14
            SOIL ZONE =        4504470.11              SOIL ZONE =          -8538.35
     UNSATURATED ZONE =       -3202713.69       UNSATURATED ZONE =          -2052.67
       SATURATED ZONE =         631789.99         SATURATED ZONE =          -2545.27

 OVERALL BUDGET ERROR =          -2402.75           BUDGET ERROR =            -19.20


  PERCENT DISCREPANCY =             -0.02    PERCENT DISCREPANCY =             -0.01



1
 SUMMARY VOLUMETRIC BUDGET FOR GSFLOW 
 DATE: 03 24 1991              CUMULATIVE TIME STEP:      24
 MODFLOW STRESS PERIOD      7     CURRENT TIME STEP:     175     ITERATIONS:       5

 -----------------------------------------------------------------------------------

   CUMULATIVE VOLUMES               L**3   RATES FOR THIS TIME STEP           L**3/T
   ------------------                      ------------------------

                                     IN                                         IN
                                     --                                         --
        PRECIPITATION =        1.1673D+07          PRECIPITATION =        1230031.83
           STREAMFLOW =                               STREAMFLOW =                  
     GW BOUNDARY FLOW =             52.27       GW BOUNDARY FLOW =              1.01


                                    OUT                                        OUT
                                    ---                                        ---
   EVAPOTRANSPIRATION =        2528979.24     EVAPOTRANSPIRATION =           4289.83
           STREAMFLOW =        1939508.23             STREAMFLOW =          13202.15
     GW BOUNDARY FLOW =           6255.55       GW BOUNDARY FLOW =             35.00

   INFLOWS - OUTFLOWS =        7198420.76     INFLOWS - OUTFLOWS =        1212505.86
             --------                                   --------

 TOTAL STORAGE CHANGE =        7200937.95         STORAGE CHANGE =        1212525.40
       --------------                             --------------
         LAND SURFACE =        5347521.52           LAND SURFACE =        1227877.70
            SOIL ZONE =        4457484.69              SOIL ZONE =         -10426.43
     UNSATURATED ZONE =       -3218237.54       UNSATURATED ZONE =          -2377.89
       SATURATED ZONE =         614169.28         SATURATED ZONE =          -2547.98

 OVERALL BUDGET ERROR =          -2517.19           BUDGET ERROR =            -19.54


  PERCENT DISCREPANCY =             -0.02    PERCENT DISCREPANCY =             -0.00



1
 SUMMARY VOLUMETRIC BUDGET FOR GSFLOW 
 DATE: 03 31 1991              CUMULATIVE TIME STEP:      31
 MODFLOW STRESS PERIOD      7     CURRENT TIME STEP:     182     ITERATIONS:       5

 -----------------------------------------------------------------------------------

   CUMULATIVE VOLUMES               L**3   RATES FOR THIS TIME STEP           L**3/T
   ------------------                      ------------------------

                                     IN                                         IN
                                     --                                         --
        PRECIPITATION =        1.2495D+07          PRECIPITATION =                  
           STREAMFLOW =                               STREAMFLOW =                  
     GW BOUNDARY FLOW =             59.54       GW BOUNDARY FLOW =              1.06


                                    OUT                                        OUT
                                    ---                                        ---
   EVAPOTRANSPIRATION =        2649998.64     EVAPOTRANSPIRATION =          47925.31
           STREAMFLOW =        2034645.71             STREAMFLOW =          14265.09
     GW BOUNDARY FLOW =           6500.16       GW BOUNDARY FLOW =             34.92

   INFLOWS - OUTFLOWS =        7804240.31     INFLOWS - OUTFLOWS =         -62224.26
             --------                                   --------

 TOTAL STORAGE CHANGE =        7806896.00         STORAGE CHANGE =         -62204.20
       --------------                             --------------
         LAND SURFACE =        5892155.22           LAND SURFACE =        -150773.77
            SOIL ZONE =        4552520.10              SOIL ZONE =          92352.41
     UNSATURATED ZONE =       -3233724.16       UNSATURATED ZONE =          -1167.48
       SATURATED ZONE =         595944.84         SATURATED ZONE =          -2615.36

 OVERALL BUDGET ERROR =          -2655.69           BUDGET ERROR =            -20.06


  PERCENT DISCREPANCY =             -0.02    PERCENT DISCREPANCY =             -0.03



1
 SUMMARY VOLUMETRIC BUDGET FOR GSFLOW 
 DATE: 04 07 1991              CUMULATIVE TIME STEP:       7
 MODFLOW STRESS PERIOD      8     CURRENT TIME STEP:     189     ITERATIONS:       6

 -----------------------------------------------------------------------------------

   CUMULATIVE VOLUMES               L**3   RATES FOR THIS TIME STEP           L**3/T
   ------------------                      ------------------------

                                     IN                                         IN
                                     --                                         --
        PRECIPITATION =        1.3018D+07          PRECIPITATION =                  
           STREAMFLOW =                               STREAMFLOW =                  
     GW BOUNDARY FLOW =             67.17       GW BOUNDARY FLOW =              1.11


                                    OUT                                        OUT
                                    ---                                        ---
   EVAPOTRANSPIRATION =        2957881.92     EVAPOTRANSPIRATION =          15898.60
           STREAMFLOW =        2265130.76             STREAMFLOW =          42835.11
     GW BOUNDARY FLOW =           6746.28       GW BOUNDARY FLOW =             35.32

   INFLOWS - OUTFLOWS =        7788044.96     INFLOWS - OUTFLOWS =         -58767.92
             --------                                   --------

 TOTAL STORAGE CHANGE =        7790786.74         STORAGE CHANGE =         -58759.36
       --------------                             --------------
         LAND SURFACE =        4252635.06           LAND SURFACE =         -72897.15
            SOIL ZONE =        6157213.83              SOIL ZONE =           4868.50
     UNSATURATED ZONE =       -3199017.52       UNSATURATED ZONE =          11056.89
       SATURATED ZONE =         579955.35         SATURATED ZONE =          -1787.60

 OVERALL BUDGET ERROR =          -2741.78           BUDGET ERROR =             -8.56


  PERCENT DISCREPANCY =             -0.02    PERCENT DISCREPANCY =             -0.01



1
 SUMMARY VOLUMETRIC BUDGET FOR GSFLOW 
 DATE: 04 14 1991              CUMULATIVE TIME STEP:      14
 MODFLOW STRESS PERIOD      8     CURRENT TIME STEP:     196     ITERATIONS:       7

 -----------------------------------------------------------------------------------

   CUMULATIVE VOLUMES               L**3   RATES FOR THIS TIME STEP           L**3/T
   ------------------                      ------------------------

                                     IN                                         IN
                                     --                                         --
        PRECIPITATION =        1.3018D+07          PRECIPITATION =                  
           STREAMFLOW =                               STREAMFLOW =                  
     GW BOUNDARY FLOW =             75.13       GW BOUNDARY FLOW =              1.16


                                    OUT                                        OUT
                                    ---                                        ---
   EVAPOTRANSPIRATION =        3141804.74     EVAPOTRANSPIRATION =          42060.22
           STREAMFLOW =        2693389.31             STREAMFLOW =          74279.73
     GW BOUNDARY FLOW =           6994.69       GW BOUNDARY FLOW =             35.60

   INFLOWS - OUTFLOWS =        7175623.13     INFLOWS - OUTFLOWS =        -116374.39
             --------                                   --------

 TOTAL STORAGE CHANGE =        7178398.61         STORAGE CHANGE =        -116371.46
       --------------                             --------------
         LAND SURFACE =        3592422.63           LAND SURFACE =        -191140.97
            SOIL ZONE =        6139766.65              SOIL ZONE =          65590.07
     UNSATURATED ZONE =       -3125188.09       UNSATURATED ZONE =          10083.78
       SATURATED ZONE =         571397.42         SATURATED ZONE =           -904.34

 OVERALL BUDGET ERROR =          -2775.47           BUDGET ERROR =             -2.93


  PERCENT DISCREPANCY =             -0.02    PERCENT DISCREPANCY =             -0.00



1
 SUMMARY VOLUMETRIC BUDGET FOR GSFLOW 
 DATE: 04 21 1991              CUMULATIVE TIME STEP:      21
 MODFLOW STRESS PERIOD      8     CURRENT TIME STEP:     203     ITERATIONS:       9

 -----------------------------------------------------------------------------------

   CUMULATIVE VOLUMES               L**3   RATES FOR THIS TIME STEP           L**3/T
   ------------------                      ------------------------

                                     IN                                         IN
                                     --                                         --
        PRECIPITATION =        1.3034D+07          PRECIPITATION =                  
           STREAMFLOW =                               STREAMFLOW =                  
     GW BOUNDARY FLOW =             83.40       GW BOUNDARY FLOW =              1.20


                                    OUT                                        OUT
                                    ---                                        ---
   EVAPOTRANSPIRATION =        3395425.75     EVAPOTRANSPIRATION =          46843.68
           STREAMFLOW =        3246757.22             STREAMFLOW =          90998.22
     GW BOUNDARY FLOW =           7243.77       GW BOUNDARY FLOW =             35.67

   INFLOWS - OUTFLOWS =        6384718.75     INFLOWS - OUTFLOWS =        -137876.37
             --------                                   --------

 TOTAL STORAGE CHANGE =        6387509.38         STORAGE CHANGE =        -137875.40
       --------------                             --------------
         LAND SURFACE =        2435410.73           LAND SURFACE =        -213938.54
            SOIL ZONE =        6436393.64              SOIL ZONE =          64441.84
     UNSATURATED ZONE =       -3051034.86       UNSATURATED ZONE =          12035.88
       SATURATED ZONE =         566739.87         SATURATED ZONE =           -414.57

 OVERALL BUDGET ERROR =          -2790.63           BUDGET ERROR =             -0.97


  PERCENT DISCREPANCY =             -0.02    PERCENT DISCREPANCY =             -0.00



1
 SUMMARY VOLUMETRIC BUDGET FOR GSFLOW 
 DATE: 04 28 1991              CUMULATIVE TIME STEP:      28
 MODFLOW STRESS PERIOD      8     CURRENT TIME STEP:     210     ITERATIONS:       7

 -----------------------------------------------------------------------------------

   CUMULATIVE VOLUMES               L**3   RATES FOR THIS TIME STEP           L**3/T
   ------------------                      ------------------------

                                     IN                                         IN
                                     --                                         --
        PRECIPITATION =        1.3303D+07          PRECIPITATION =                  
           STREAMFLOW =                               STREAMFLOW =                  
     GW BOUNDARY FLOW =             91.93       GW BOUNDARY FLOW =              1.24


                                    OUT                                        OUT
                                    ---                                        ---
   EVAPOTRANSPIRATION =        3663527.71     EVAPOTRANSPIRATION =          58070.50
           STREAMFLOW =        3895243.60             STREAMFLOW =          92218.27
     GW BOUNDARY FLOW =           7493.13       GW BOUNDARY FLOW =             35.57

   INFLOWS - OUTFLOWS =        5737257.99     INFLOWS - OUTFLOWS =        -150323.11
             --------                                   --------

 TOTAL STORAGE CHANGE =        5740061.75         STORAGE CHANGE =        -150321.85
       --------------                             --------------
         LAND SURFACE =        1696862.83           LAND SURFACE =        -133863.59
            SOIL ZONE =        6443516.63              SOIL ZONE =         -28106.98
     UNSATURATED ZONE =       -2967093.24       UNSATURATED ZONE =          11460.89
       SATURATED ZONE =         566775.53         SATURATED ZONE =            187.83

 OVERALL BUDGET ERROR =          -2803.76           BUDGET ERROR =             -1.25


  PERCENT DISCREPANCY =             -0.02    PERCENT DISCREPANCY =             -0.00



1
 SUMMARY VOLUMETRIC BUDGET FOR GSFLOW 
 DATE: 05 05 1991              CUMULATIVE TIME STEP:       5
 MODFLOW STRESS PERIOD      9     CURRENT TIME STEP:     217     ITERATIONS:       7

 -----------------------------------------------------------------------------------

   CUMULATIVE VOLUMES               L**3   RATES FOR THIS TIME STEP           L**3/T
   ------------------                      ------------------------

                                     IN                                         IN
                                     --                                         --
        PRECIPITATION =        1.3510D+07          PRECIPITATION =                  
           STREAMFLOW =                               STREAMFLOW =                  
     GW BOUNDARY FLOW =            100.73       GW BOUNDARY FLOW =              1.27


                                    OUT                                        OUT
                                    ---                                        ---
   EVAPOTRANSPIRATION =        4040285.47     EVAPOTRANSPIRATION =          90182.26
           STREAMFLOW =        4467004.81             STREAMFLOW =          83081.55
     GW BOUNDARY FLOW =           7740.82       GW BOUNDARY FLOW =             35.33

   INFLOWS - OUTFLOWS =        4994777.76     INFLOWS - OUTFLOWS =        -173297.86
             --------                                   --------

 TOTAL STORAGE CHANGE =        4997589.37         STORAGE CHANGE =        -173297.19
       --------------                             --------------
         LAND SURFACE =        1003116.62           LAND SURFACE =        -147007.10
            SOIL ZONE =        6322251.62              SOIL ZONE =         -36515.91
     UNSATURATED ZONE =       -2894827.18       UNSATURATED ZONE =          10157.44
       SATURATED ZONE =         567048.30         SATURATED ZONE =             68.38

 OVERALL BUDGET ERROR =          -2811.61           BUDGET ERROR =             -0.67


  PERCENT DISCREPANCY =             -0.02    PERCENT DISCREPANCY =             -0.00



1
 SUMMARY VOLUMETRIC BUDGET FOR GSFLOW 
 DATE: 05 12 1991              CUMULATIVE TIME STEP:      12
 MODFLOW STRESS PERIOD      9     CURRENT TIME STEP:     224     ITERATIONS:       7

 -----------------------------------------------------------------------------------

   CUMULATIVE VOLUMES               L**3   RATES FOR THIS TIME STEP           L**3/T
   ------------------                      ------------------------

                                     IN                                         IN
                                     --                                         --
        PRECIPITATION =        1.4029D+07          PRECIPITATION =                  
           STREAMFLOW =                               STREAMFLOW =                  
     GW BOUNDARY FLOW =            109.79       GW BOUNDARY FLOW =              1.31


                                    OUT                                        OUT
                                    ---                                        ---
   EVAPOTRANSPIRATION =        4435672.74     EVAPOTRANSPIRATION =          68750.33
           STREAMFLOW =        5002497.93             STREAMFLOW =          85416.62
     GW BOUNDARY FLOW =           7986.84       GW BOUNDARY FLOW =             35.17

   INFLOWS - OUTFLOWS =        4583174.43     INFLOWS - OUTFLOWS =        -154200.81
             --------                                   --------

 TOTAL STORAGE CHANGE =        4585989.13         STORAGE CHANGE =        -154200.36
       --------------                             --------------
         LAND SURFACE =         555531.38           LAND SURFACE =        -204072.74
            SOIL ZONE =        6293628.92              SOIL ZONE =          40846.99
     UNSATURATED ZONE =       -2833016.24       UNSATURATED ZONE =           8741.81
       SATURATED ZONE =         569845.06         SATURATED ZONE =            283.59

 OVERALL BUDGET ERROR =          -2814.70           BUDGET ERROR =             -0.45


  PERCENT DISCREPANCY =             -0.02    PERCENT DISCREPANCY =             -0.00



1
 SUMMARY VOLUMETRIC BUDGET FOR GSFLOW 
 DATE: 05 19 1991              CUMULATIVE TIME STEP:      19
 MODFLOW STRESS PERIOD      9     CURRENT TIME STEP:     231     ITERATIONS:       7

 -----------------------------------------------------------------------------------

   CUMULATIVE VOLUMES               L**3   RATES FOR THIS TIME STEP           L**3/T
   ------------------                      ------------------------

                                     IN                                         IN
                                     --                                         --
        PRECIPITATION =        1.4365D+07          PRECIPITATION =                  
           STREAMFLOW =                               STREAMFLOW =                  
     GW BOUNDARY FLOW =            119.13       GW BOUNDARY FLOW =              1.35


                                    OUT                                        OUT
                                    ---                                        ---
   EVAPOTRANSPIRATION =        4874108.44     EVAPOTRANSPIRATION =          20369.32
           STREAMFLOW =        5448819.89             STREAMFLOW =          55159.22
     GW BOUNDARY FLOW =           8230.58       GW BOUNDARY FLOW =             34.64

   INFLOWS - OUTFLOWS =        4034338.53     INFLOWS - OUTFLOWS =         -75561.84
             --------                                   --------

 TOTAL STORAGE CHANGE =        4037153.24         STORAGE CHANGE =         -75562.17
       --------------                             --------------
         LAND SURFACE =         218834.82           LAND SURFACE =         -22220.84
            SOIL ZONE =        6030432.81              SOIL ZONE =         -59338.80
     UNSATURATED ZONE =       -2785299.59       UNSATURATED ZONE =           5436.05
       SATURATED ZONE =         573185.19         SATURATED ZONE =            561.43

 OVERALL BUDGET ERROR =          -2814.71           BUDGET ERROR =              0.33


  PERCENT DISCREPANCY =             -0.02    PERCENT DISCREPANCY =              0.00



1
 SUMMARY VOLUMETRIC BUDGET FOR GSFLOW 
 DATE: 05 26 1991              CUMULATIVE TIME STEP:      26
 MODFLOW STRESS PERIOD      9     CURRENT TIME STEP:     238     ITERATIONS:       6

 -----------------------------------------------------------------------------------

   CUMULATIVE VOLUMES               L**3   RATES FOR THIS TIME STEP           L**3/T
   ------------------                      ------------------------

                                     IN                                         IN
                                     --                                         --
        PRECIPITATION =        1.4426D+07          PRECIPITATION =                  
           STREAMFLOW =                               STREAMFLOW =                  
     GW BOUNDARY FLOW =            128.75       GW BOUNDARY FLOW =              1.39


                                    OUT                                        OUT
                                    ---                                        ---
   EVAPOTRANSPIRATION =        5558584.68     EVAPOTRANSPIRATION =          76940.71
           STREAMFLOW =        5752282.42             STREAMFLOW =          30980.71
     GW BOUNDARY FLOW =           8471.22       GW BOUNDARY FLOW =             34.12

   INFLOWS - OUTFLOWS =        3107288.04     INFLOWS - OUTFLOWS =        -107954.16
             --------                                   --------

 TOTAL STORAGE CHANGE =        3110101.09         STORAGE CHANGE =        -107953.45
       --------------                             --------------
         LAND SURFACE =          51939.66           LAND SURFACE =          -7710.54
            SOIL ZONE =        5248884.56              SOIL ZONE =         -99885.30
     UNSATURATED ZONE =       -2765146.95       UNSATURATED ZONE =           -148.23
       SATURATED ZONE =         574423.82         SATURATED ZONE =           -209.38

 OVERALL BUDGET ERROR =          -2813.04           BUDGET ERROR =             -0.71


  PERCENT DISCREPANCY =             -0.02    PERCENT DISCREPANCY =             -0.00



1
 SUMMARY VOLUMETRIC BUDGET FOR GSFLOW 
 DATE: 06 02 1991              CUMULATIVE TIME STEP:       2
 MODFLOW STRESS PERIOD     10     CURRENT TIME STEP:     245     ITERATIONS:       6

 -----------------------------------------------------------------------------------

   CUMULATIVE VOLUMES               L**3   RATES FOR THIS TIME STEP           L**3/T
   ------------------                      ------------------------

                                     IN                                         IN
                                     --                                         --
        PRECIPITATION =        1.4671D+07          PRECIPITATION =                  
           STREAMFLOW =                               STREAMFLOW =                  
     GW BOUNDARY FLOW =            138.65       GW BOUNDARY FLOW =              1.43


                                    OUT                                        OUT
                                    ---                                        ---
   EVAPOTRANSPIRATION =        6146911.36     EVAPOTRANSPIRATION =         127367.25
           STREAMFLOW =        5961861.84             STREAMFLOW =          25689.52
     GW BOUNDARY FLOW =           8709.30       GW BOUNDARY FLOW =             33.87

   INFLOWS - OUTFLOWS =        2553630.95     INFLOWS - OUTFLOWS =        -153089.21
             --------                                   --------

 TOTAL STORAGE CHANGE =        2556463.25         STORAGE CHANGE =        -153085.75
       --------------                             --------------
         LAND SURFACE =          18584.49           LAND SURFACE =          -3939.55
            SOIL ZONE =        4747411.44              SOIL ZONE =        -145062.86
     UNSATURATED ZONE =       -2779674.18       UNSATURATED ZONE =          -3164.97
       SATURATED ZONE =         570141.50         SATURATED ZONE =           -918.37

 OVERALL BUDGET ERROR =          -2832.30           BUDGET ERROR =             -3.46


  PERCENT DISCREPANCY =             -0.02    PERCENT DISCREPANCY =             -0.00



1
 SUMMARY VOLUMETRIC BUDGET FOR GSFLOW 
 DATE: 06 09 1991              CUMULATIVE TIME STEP:       9
 MODFLOW STRESS PERIOD     10     CURRENT TIME STEP:     252     ITERATIONS:       7

 -----------------------------------------------------------------------------------

   CUMULATIVE VOLUMES               L**3   RATES FOR THIS TIME STEP           L**3/T
   ------------------                      ------------------------

                                     IN                                         IN
                                     --                                         --
        PRECIPITATION =        1.4671D+07          PRECIPITATION =                  
           STREAMFLOW =                               STREAMFLOW =                  
     GW BOUNDARY FLOW =            148.85       GW BOUNDARY FLOW =              1.47


                                    OUT                                        OUT
                                    ---                                        ---
   EVAPOTRANSPIRATION =        6934131.33     EVAPOTRANSPIRATION =         172205.04
           STREAMFLOW =        6112812.55             STREAMFLOW =          18719.21
     GW BOUNDARY FLOW =           8945.25       GW BOUNDARY FLOW =             33.59

   INFLOWS - OUTFLOWS =        1615234.51     INFLOWS - OUTFLOWS =        -190956.36
             --------                                   --------

 TOTAL STORAGE CHANGE =        1618106.60         STORAGE CHANGE =        -190950.17
       --------------                             --------------
         LAND SURFACE =           3507.01           LAND SURFACE =          -2050.96
            SOIL ZONE =        3871835.31              SOIL ZONE =        -180290.94
     UNSATURATED ZONE =       -2816624.23       UNSATURATED ZONE =          -6488.04
       SATURATED ZONE =         559388.52         SATURATED ZONE =          -2120.24

 OVERALL BUDGET ERROR =          -2872.09           BUDGET ERROR =             -6.19


  PERCENT DISCREPANCY =             -0.02    PERCENT DISCREPANCY =             -0.00



1
 SUMMARY VOLUMETRIC BUDGET FOR GSFLOW 
 DATE: 06 16 1991              CUMULATIVE TIME STEP:      16
 MODFLOW STRESS PERIOD     10     CURRENT TIME STEP:     259     ITERATIONS:       6

 -----------------------------------------------------------------------------------

   CUMULATIVE VOLUMES               L**3   RATES FOR THIS TIME STEP           L**3/T
   ------------------                      ------------------------

                                     IN                                         IN
                                     --                                         --
        PRECIPITATION =        1.4671D+07          PRECIPITATION =                  
           STREAMFLOW =                               STREAMFLOW =                  
     GW BOUNDARY FLOW =            159.33       GW BOUNDARY FLOW =              1.51


                                    OUT                                        OUT
                                    ---                                        ---
   EVAPOTRANSPIRATION =        7949106.03     EVAPOTRANSPIRATION =         116805.56
           STREAMFLOW =        6230520.96             STREAMFLOW =          16247.47
     GW BOUNDARY FLOW =           9179.46       GW BOUNDARY FLOW =             33.38

   INFLOWS - OUTFLOWS =         482327.68     INFLOWS - OUTFLOWS =        -133084.90
             --------                                   --------

 TOTAL STORAGE CHANGE =         485263.62         STORAGE CHANGE =        -133074.03
       --------------                             --------------
         LAND SURFACE =             96.44           LAND SURFACE =            -47.78
            SOIL ZONE =        2848349.76              SOIL ZONE =        -113177.46
     UNSATURATED ZONE =       -2902725.29       UNSATURATED ZONE =         -16208.51
       SATURATED ZONE =         539542.71         SATURATED ZONE =          -3640.28

 OVERALL BUDGET ERROR =          -2935.94           BUDGET ERROR =            -10.87


  PERCENT DISCREPANCY =             -0.02    PERCENT DISCREPANCY =             -0.01



1
 SUMMARY VOLUMETRIC BUDGET FOR GSFLOW 
 DATE: 06 23 1991              CUMULATIVE TIME STEP:      23
 MODFLOW STRESS PERIOD     10     CURRENT TIME STEP:     266     ITERATIONS:       5

 -----------------------------------------------------------------------------------

   CUMULATIVE VOLUMES               L**3   RATES FOR THIS TIME STEP           L**3/T
   ------------------                      ------------------------

                                     IN                                         IN
                                     --                                         --
        PRECIPITATION =        1.4671D+07          PRECIPITATION =                  
           STREAMFLOW =                               STREAMFLOW =                  
     GW BOUNDARY FLOW =            169.90       GW BOUNDARY FLOW =              1.48


                                    OUT                                        OUT
                                    ---                                        ---
   EVAPOTRANSPIRATION =        8491441.88     EVAPOTRANSPIRATION =          38893.54
           STREAMFLOW =        6340669.53             STREAMFLOW =          15450.38
     GW BOUNDARY FLOW =           9412.48       GW BOUNDARY FLOW =             33.22

   INFLOWS - OUTFLOWS =        -170379.19     INFLOWS - OUTFLOWS =         -54375.66
             --------                                   --------

 TOTAL STORAGE CHANGE =        -167352.99         STORAGE CHANGE =         -54354.60
       --------------                             --------------
         LAND SURFACE =             13.79           LAND SURFACE =             -3.53
            SOIL ZONE =        2341702.83              SOIL ZONE =         -35979.88
     UNSATURATED ZONE =       -3015548.34       UNSATURATED ZONE =         -13178.18
       SATURATED ZONE =         506478.73         SATURATED ZONE =          -5193.01

 OVERALL BUDGET ERROR =          -3026.20           BUDGET ERROR =            -21.06


  PERCENT DISCREPANCY =             -0.02    PERCENT DISCREPANCY =             -0.04



1
 SUMMARY VOLUMETRIC BUDGET FOR GSFLOW 
 DATE: 06 30 1991              CUMULATIVE TIME STEP:      30
 MODFLOW STRESS PERIOD     10     CURRENT TIME STEP:     273     ITERATIONS:       5

 -----------------------------------------------------------------------------------

   CUMULATIVE VOLUMES               L**3   RATES FOR THIS TIME STEP           L**3/T
   ------------------                      ------------------------

                                     IN                                         IN
[...]
     GW BOUNDARY FLOW =          51254.83       GW BOUNDARY FLOW =             25.10

   INFLOWS - OUTFLOWS =       -1.1020D+07     INFLOWS - OUTFLOWS =         -87884.15
             --------                                   --------

 TOTAL STORAGE CHANGE =       -1.1012D+07         STORAGE CHANGE =         -87893.30
       --------------                             --------------
         LAND SURFACE =         174964.05           LAND SURFACE =         -10872.67
            SOIL ZONE =        1880657.53              SOIL ZONE =         -59472.87
     UNSATURATED ZONE =          46528.54       UNSATURATED ZONE =         -12407.70
       SATURATED ZONE =       -1.3114D+07         SATURATED ZONE =          -5140.06

 OVERALL BUDGET ERROR =          -8179.09           BUDGET ERROR =              9.15


  PERCENT DISCREPANCY =             -0.01    PERCENT DISCREPANCY =              0.01



1
 SUMMARY VOLUMETRIC BUDGET FOR GSFLOW 
 DATE: 09 03 1995              CUMULATIVE TIME STEP:       3
 MODFLOW STRESS PERIOD     61     CURRENT TIME STEP:    1799     ITERATIONS:       7

 -----------------------------------------------------------------------------------

   CUMULATIVE VOLUMES               L**3   RATES FOR THIS TIME STEP           L**3/T
   ------------------                      ------------------------

                                     IN                                         IN
                                     --                                         --
        PRECIPITATION =        1.3351D+08          PRECIPITATION =                  
           STREAMFLOW =                               STREAMFLOW =                  
     GW BOUNDARY FLOW =           5415.13       GW BOUNDARY FLOW =              3.31


                                    OUT                                        OUT
                                    ---                                        ---
   EVAPOTRANSPIRATION =        7.4189D+07     EVAPOTRANSPIRATION =          66642.16
           STREAMFLOW =        7.0877D+07             STREAMFLOW =          11378.51
     GW BOUNDARY FLOW =          51430.27       GW BOUNDARY FLOW =             25.04

   INFLOWS - OUTFLOWS =       -1.1604D+07     INFLOWS - OUTFLOWS =         -78042.40
             --------                                   --------

 TOTAL STORAGE CHANGE =       -1.1596D+07         STORAGE CHANGE =         -78049.33
       --------------                             --------------
         LAND SURFACE =         111496.32           LAND SURFACE =          -7601.38
            SOIL ZONE =        1484645.08              SOIL ZONE =         -52624.88
     UNSATURATED ZONE =         -35219.52       UNSATURATED ZONE =         -11426.47
       SATURATED ZONE =       -1.3156D+07         SATURATED ZONE =          -6396.60

 OVERALL BUDGET ERROR =          -8123.22           BUDGET ERROR =              6.93


  PERCENT DISCREPANCY =             -0.01    PERCENT DISCREPANCY =              0.01



1
 SUMMARY VOLUMETRIC BUDGET FOR GSFLOW 
 DATE: 09 10 1995              CUMULATIVE TIME STEP:      10
 MODFLOW STRESS PERIOD     61     CURRENT TIME STEP:    1806     ITERATIONS:       6

 -----------------------------------------------------------------------------------

   CUMULATIVE VOLUMES               L**3   RATES FOR THIS TIME STEP           L**3/T
   ------------------                      ------------------------

                                     IN                                         IN
                                     --                                         --
        PRECIPITATION =        1.3351D+08          PRECIPITATION =                  
           STREAMFLOW =                               STREAMFLOW =                  
     GW BOUNDARY FLOW =           5438.72       GW BOUNDARY FLOW =              3.42


                                    OUT                                        OUT
                                    ---                                        ---
   EVAPOTRANSPIRATION =        7.4564D+07     EVAPOTRANSPIRATION =          50283.88
           STREAMFLOW =        7.0955D+07             STREAMFLOW =          10894.52
     GW BOUNDARY FLOW =          51605.35       GW BOUNDARY FLOW =             24.99

   INFLOWS - OUTFLOWS =       -1.2056D+07     INFLOWS - OUTFLOWS =         -61199.98
             --------                                   --------

 TOTAL STORAGE CHANGE =       -1.2048D+07         STORAGE CHANGE =         -61210.80
       --------------                             --------------
         LAND SURFACE =          73766.31           LAND SURFACE =          -4565.46
            SOIL ZONE =        1190167.27              SOIL ZONE =         -39196.27
     UNSATURATED ZONE =        -111396.19       UNSATURATED ZONE =         -10679.21
       SATURATED ZONE =       -1.3201D+07         SATURATED ZONE =          -6769.86

 OVERALL BUDGET ERROR =          -8056.68           BUDGET ERROR =             10.82


  PERCENT DISCREPANCY =             -0.01    PERCENT DISCREPANCY =              0.02



1
 SUMMARY VOLUMETRIC BUDGET FOR GSFLOW 
 DATE: 09 17 1995              CUMULATIVE TIME STEP:      17
 MODFLOW STRESS PERIOD     61     CURRENT TIME STEP:    1813     ITERATIONS:       7

 -----------------------------------------------------------------------------------

   CUMULATIVE VOLUMES               L**3   RATES FOR THIS TIME STEP           L**3/T
   ------------------                      ------------------------

                                     IN                                         IN
                                     --                                         --
        PRECIPITATION =        1.3351D+08          PRECIPITATION =                  
           STREAMFLOW =                               STREAMFLOW =                  
     GW BOUNDARY FLOW =           5463.04       GW BOUNDARY FLOW =              3.52


                                    OUT                                        OUT
                                    ---                                        ---
   EVAPOTRANSPIRATION =        7.4972D+07     EVAPOTRANSPIRATION =          46646.95
           STREAMFLOW =        7.1028D+07             STREAMFLOW =          10306.39
     GW BOUNDARY FLOW =          51780.04       GW BOUNDARY FLOW =             24.94

   INFLOWS - OUTFLOWS =       -1.2538D+07     INFLOWS - OUTFLOWS =         -56974.77
             --------                                   --------

 TOTAL STORAGE CHANGE =       -1.2530D+07         STORAGE CHANGE =         -56978.87
       --------------                             --------------
         LAND SURFACE =          42893.82           LAND SURFACE =          -2921.51
            SOIL ZONE =         879873.88              SOIL ZONE =         -34302.84
     UNSATURATED ZONE =        -190457.60       UNSATURATED ZONE =         -11471.70
       SATURATED ZONE =       -1.3263D+07         SATURATED ZONE =          -8282.81

 OVERALL BUDGET ERROR =          -8001.98           BUDGET ERROR =              4.10


  PERCENT DISCREPANCY =             -0.01    PERCENT DISCREPANCY =              0.01



1
 SUMMARY VOLUMETRIC BUDGET FOR GSFLOW 
 DATE: 09 24 1995              CUMULATIVE TIME STEP:      24
 MODFLOW STRESS PERIOD     61     CURRENT TIME STEP:    1820     ITERATIONS:       6

 -----------------------------------------------------------------------------------

   CUMULATIVE VOLUMES               L**3   RATES FOR THIS TIME STEP           L**3/T
   ------------------                      ------------------------

                                     IN                                         IN
                                     --                                         --
        PRECIPITATION =        1.3351D+08          PRECIPITATION =                  
           STREAMFLOW =                               STREAMFLOW =                  
     GW BOUNDARY FLOW =           5488.05       GW BOUNDARY FLOW =              3.61


                                    OUT                                        OUT
                                    ---                                        ---
   EVAPOTRANSPIRATION =        7.5261D+07     EVAPOTRANSPIRATION =          30103.27
           STREAMFLOW =        7.1099D+07             STREAMFLOW =          10106.49
     GW BOUNDARY FLOW =          51954.45       GW BOUNDARY FLOW =             24.90

   INFLOWS - OUTFLOWS =       -1.2898D+07     INFLOWS - OUTFLOWS =         -40231.05
             --------                                   --------

 TOTAL STORAGE CHANGE =       -1.2890D+07         STORAGE CHANGE =         -40237.77
       --------------                             --------------
         LAND SURFACE =          27188.16           LAND SURFACE =          -1533.29
            SOIL ZONE =         673626.92              SOIL ZONE =         -20840.87
     UNSATURATED ZONE =        -267662.27       UNSATURATED ZONE =         -10297.19
       SATURATED ZONE =       -1.3323D+07         SATURATED ZONE =          -7566.42

 OVERALL BUDGET ERROR =          -7970.94           BUDGET ERROR =              6.72


  PERCENT DISCREPANCY =             -0.01    PERCENT DISCREPANCY =              0.02



1
 SUMMARY VOLUMETRIC BUDGET FOR GSFLOW 
 DATE: 10 01 1995              CUMULATIVE TIME STEP:       1
 MODFLOW STRESS PERIOD     62     CURRENT TIME STEP:    1827     ITERATIONS:       6

 -----------------------------------------------------------------------------------

   CUMULATIVE VOLUMES               L**3   RATES FOR THIS TIME STEP           L**3/T
   ------------------                      ------------------------

                                     IN                                         IN
                                     --                                         --
        PRECIPITATION =        1.3351D+08          PRECIPITATION =                  
           STREAMFLOW =                               STREAMFLOW =                  
     GW BOUNDARY FLOW =           5513.72       GW BOUNDARY FLOW =              3.70


                                    OUT                                        OUT
                                    ---                                        ---
   EVAPOTRANSPIRATION =        7.5389D+07     EVAPOTRANSPIRATION =          18486.15
           STREAMFLOW =        7.1170D+07             STREAMFLOW =          10092.21
     GW BOUNDARY FLOW =          52128.70       GW BOUNDARY FLOW =             24.88

   INFLOWS - OUTFLOWS =       -1.3097D+07     INFLOWS - OUTFLOWS =         -28599.53
             --------                                   --------

 TOTAL STORAGE CHANGE =       -1.3089D+07         STORAGE CHANGE =         -28604.92
       --------------                             --------------
         LAND SURFACE =          21549.74           LAND SURFACE =           -680.64
            SOIL ZONE =         586920.29              SOIL ZONE =         -12597.64
     UNSATURATED ZONE =        -331306.60       UNSATURATED ZONE =          -8915.14
       SATURATED ZONE =       -1.3366D+07         SATURATED ZONE =          -6411.50

 OVERALL BUDGET ERROR =          -7935.50           BUDGET ERROR =              5.39


  PERCENT DISCREPANCY =             -0.01    PERCENT DISCREPANCY =              0.02



1
 SUMMARY VOLUMETRIC BUDGET FOR GSFLOW 
 DATE: 10 08 1995              CUMULATIVE TIME STEP:       8
 MODFLOW STRESS PERIOD     62     CURRENT TIME STEP:    1834     ITERATIONS:       5

 -----------------------------------------------------------------------------------

   CUMULATIVE VOLUMES               L**3   RATES FOR THIS TIME STEP           L**3/T
   ------------------                      ------------------------

                                     IN                                         IN
                                     --                                         --
        PRECIPITATION =        1.3351D+08          PRECIPITATION =                  
           STREAMFLOW =                               STREAMFLOW =                  
     GW BOUNDARY FLOW =           5539.97       GW BOUNDARY FLOW =              3.79


                                    OUT                                        OUT
                                    ---                                        ---
   EVAPOTRANSPIRATION =        7.5524D+07     EVAPOTRANSPIRATION =          17056.22
           STREAMFLOW =        7.1240D+07             STREAMFLOW =           9951.75
     GW BOUNDARY FLOW =          52302.80       GW BOUNDARY FLOW =             24.86

   INFLOWS - OUTFLOWS =       -1.3303D+07     INFLOWS - OUTFLOWS =         -27029.05
             --------                                   --------

 TOTAL STORAGE CHANGE =       -1.3295D+07         STORAGE CHANGE =         -27035.79
       --------------                             --------------
         LAND SURFACE =          17598.17           LAND SURFACE =           -617.60
            SOIL ZONE =         494566.58              SOIL ZONE =         -11322.75
     UNSATURATED ZONE =        -390966.17       UNSATURATED ZONE =          -8154.78
       SATURATED ZONE =       -1.3416D+07         SATURATED ZONE =          -6940.65

 OVERALL BUDGET ERROR =          -7897.46           BUDGET ERROR =              6.74


  PERCENT DISCREPANCY =             -0.01    PERCENT DISCREPANCY =              0.02



1
 SUMMARY VOLUMETRIC BUDGET FOR GSFLOW 
 DATE: 10 15 1995              CUMULATIVE TIME STEP:      15
 MODFLOW STRESS PERIOD     62     CURRENT TIME STEP:    1841     ITERATIONS:       5

 -----------------------------------------------------------------------------------

   CUMULATIVE VOLUMES               L**3   RATES FOR THIS TIME STEP           L**3/T
   ------------------                      ------------------------

                                     IN                                         IN
                                     --                                         --
        PRECIPITATION =        1.3351D+08          PRECIPITATION =                  
           STREAMFLOW =                               STREAMFLOW =                  
     GW BOUNDARY FLOW =           5566.78       GW BOUNDARY FLOW =              3.86


                                    OUT                                        OUT
                                    ---                                        ---
   EVAPOTRANSPIRATION =        7.5652D+07     EVAPOTRANSPIRATION =          19797.45
           STREAMFLOW =        7.1308D+07             STREAMFLOW =           9603.56
     GW BOUNDARY FLOW =          52475.96       GW BOUNDARY FLOW =             24.71

   INFLOWS - OUTFLOWS =       -1.3498D+07     INFLOWS - OUTFLOWS =         -29421.86
             --------                                   --------

 TOTAL STORAGE CHANGE =       -1.3491D+07         STORAGE CHANGE =         -29425.22
       --------------                             --------------
         LAND SURFACE =          13563.29           LAND SURFACE =           -673.08
            SOIL ZONE =         410200.35              SOIL ZONE =         -12918.47
     UNSATURATED ZONE =        -445235.36       UNSATURATED ZONE =          -7525.54
       SATURATED ZONE =       -1.3469D+07         SATURATED ZONE =          -8308.14

 OVERALL BUDGET ERROR =          -7876.97           BUDGET ERROR =              3.36


  PERCENT DISCREPANCY =             -0.01    PERCENT DISCREPANCY =              0.01



1
 SUMMARY VOLUMETRIC BUDGET FOR GSFLOW 
 DATE: 10 22 1995              CUMULATIVE TIME STEP:      22
 MODFLOW STRESS PERIOD     62     CURRENT TIME STEP:    1848     ITERATIONS:      10

 -----------------------------------------------------------------------------------

   CUMULATIVE VOLUMES               L**3   RATES FOR THIS TIME STEP           L**3/T
   ------------------                      ------------------------

                                     IN                                         IN
                                     --                                         --
        PRECIPITATION =        1.3351D+08          PRECIPITATION =                  
           STREAMFLOW =                               STREAMFLOW =                  
     GW BOUNDARY FLOW =           5594.12       GW BOUNDARY FLOW =              3.94


                                    OUT                                        OUT
                                    ---                                        ---
   EVAPOTRANSPIRATION =        7.5765D+07     EVAPOTRANSPIRATION =           5155.63
           STREAMFLOW =        7.1375D+07             STREAMFLOW =           9945.42
     GW BOUNDARY FLOW =          52648.68       GW BOUNDARY FLOW =             24.71

   INFLOWS - OUTFLOWS =       -1.3679D+07     INFLOWS - OUTFLOWS =         -15121.82
             --------                                   --------

 TOTAL STORAGE CHANGE =       -1.3671D+07         STORAGE CHANGE =         -15122.12
       --------------                             --------------
         LAND SURFACE =          10116.83           LAND SURFACE =             -7.50
            SOIL ZONE =         338147.18              SOIL ZONE =          -3053.14
     UNSATURATED ZONE =        -495012.08       UNSATURATED ZONE =          -6559.52
       SATURATED ZONE =       -1.3524D+07         SATURATED ZONE =          -5501.95

 OVERALL BUDGET ERROR =          -7867.74           BUDGET ERROR =              0.30


  PERCENT DISCREPANCY =             -0.01    PERCENT DISCREPANCY =              0.00



1
 SUMMARY VOLUMETRIC BUDGET FOR GSFLOW 
 DATE: 10 29 1995              CUMULATIVE TIME STEP:      29
 MODFLOW STRESS PERIOD     62     CURRENT TIME STEP:    1855     ITERATIONS:       5

 -----------------------------------------------------------------------------------

   CUMULATIVE VOLUMES               L**3   RATES FOR THIS TIME STEP           L**3/T
   ------------------                      ------------------------

                                     IN                                         IN
                                     --                                         --
        PRECIPITATION =        1.3351D+08          PRECIPITATION =                  
           STREAMFLOW =                               STREAMFLOW =                  
     GW BOUNDARY FLOW =           5622.06       GW BOUNDARY FLOW =              4.03


                                    OUT                                        OUT
                                    ---                                        ---
   EVAPOTRANSPIRATION =        7.5836D+07     EVAPOTRANSPIRATION =          12318.35
           STREAMFLOW =        7.1443D+07             STREAMFLOW =           9517.37
     GW BOUNDARY FLOW =          52821.54       GW BOUNDARY FLOW =             24.65

   INFLOWS - OUTFLOWS =       -1.3818D+07     INFLOWS - OUTFLOWS =         -21856.34
             --------                                   --------

 TOTAL STORAGE CHANGE =       -1.3810D+07         STORAGE CHANGE =         -21858.46
       --------------                             --------------
         LAND SURFACE =           8965.16           LAND SURFACE =           -342.48
            SOIL ZONE =         295070.78              SOIL ZONE =          -7272.07
     UNSATURATED ZONE =        -541925.82       UNSATURATED ZONE =          -6657.03
       SATURATED ZONE =       -1.3572D+07         SATURATED ZONE =          -7586.88

 OVERALL BUDGET ERROR =          -7858.89           BUDGET ERROR =              2.12


  PERCENT DISCREPANCY =             -0.01    PERCENT DISCREPANCY =              0.01



 Number of time steps:   1857;  Number of non-convergence:   0
 MF iterations:         11511;  SZ iterations:           11500
 Average MF iterations:  6.20;  Average SZ iterations:    6.19
 Maximum MF iterations:    61;  Maximum SZ iterations:      50

mxsziter reached: 1

