1
 SUMMARY VOLUMETRIC BUDGET FOR GSFLOW 
 DATE: 10 07 1990              CUMULATIVE TIME STEP:       7
 MODFLOW STRESS PERIOD      2     CURRENT TIME STEP:       7     ITERATIONS:       7

 -----------------------------------------------------------------------------------

   CUMULATIVE VOLUMES               L**3   RATES FOR THIS TIME STEP           L**3/T
   ------------------                      ------------------------

                                     IN                                         IN
                                     --                                         --
        PRECIPITATION =                            PRECIPITATION =                  
           STREAMFLOW =                               STREAMFLOW =                  
     GW BOUNDARY FLOW =                         GW BOUNDARY FLOW =                  


                                    OUT                                        OUT
                                    ---                                        ---
   EVAPOTRANSPIRATION =         384997.90     EVAPOTRANSPIRATION =          11800.14
           STREAMFLOW =          46311.09             STREAMFLOW =           8184.28
     GW BOUNDARY FLOW =            252.80       GW BOUNDARY FLOW =             36.30

   INFLOWS - OUTFLOWS =        -431561.78     INFLOWS - OUTFLOWS =         -20020.73
             --------                                   --------

 TOTAL STORAGE CHANGE =        -430092.43         STORAGE CHANGE =         -19994.04
       --------------                             --------------
         LAND SURFACE =                             LAND SURFACE =                  
            SOIL ZONE =         -33647.94              SOIL ZONE =           -949.06
     UNSATURATED ZONE =        -502271.26       UNSATURATED ZONE =         -33315.93
       SATURATED ZONE =         105826.77         SATURATED ZONE =          14270.95

 OVERALL BUDGET ERROR =          -1469.35           BUDGET ERROR =            -26.68


  PERCENT DISCREPANCY =             -0.34    PERCENT DISCREPANCY =             -0.13



1
 SUMMARY VOLUMETRIC BUDGET FOR GSFLOW 
 DATE: 10 14 1990              CUMULATIVE TIME STEP:      14
 MODFLOW STRESS PERIOD      2     CURRENT TIME STEP:      14     ITERATIONS:       6

 -----------------------------------------------------------------------------------

   CUMULATIVE VOLUMES               L**3   RATES FOR THIS TIME STEP           L**3/T
   ------------------                      ------------------------

                                     IN                                         IN
                                     --                                         --
        PRECIPITATION =                            PRECIPITATION =                  
           STREAMFLOW =                               STREAMFLOW =                  
     GW BOUNDARY FLOW =                         GW BOUNDARY FLOW =                  


                                    OUT                                        OUT
                                    ---                                        ---
   EVAPOTRANSPIRATION =         665193.76     EVAPOTRANSPIRATION =          42313.10
           STREAMFLOW =         101471.34             STREAMFLOW =           7477.71
     GW BOUNDARY FLOW =            506.65       GW BOUNDARY FLOW =             36.24

   INFLOWS - OUTFLOWS =        -767171.75     INFLOWS - OUTFLOWS =         -49827.05
             --------                                   --------

 TOTAL STORAGE CHANGE =        -765417.42         STORAGE CHANGE =         -49806.36
       --------------                             --------------
         LAND SURFACE =                             LAND SURFACE =                  
            SOIL ZONE =         -58651.68              SOIL ZONE =          -4416.62
     UNSATURATED ZONE =        -877077.56       UNSATURATED ZONE =         -52127.47
       SATURATED ZONE =         170311.81         SATURATED ZONE =           6737.73

 OVERALL BUDGET ERROR =          -1754.33           BUDGET ERROR =            -20.69


  PERCENT DISCREPANCY =             -0.23    PERCENT DISCREPANCY =             -0.04



1
 SUMMARY VOLUMETRIC BUDGET FOR GSFLOW 
 DATE: 10 21 1990              CUMULATIVE TIME STEP:      21
 MODFLOW STRESS PERIOD      2     CURRENT TIME STEP:      21     ITERATIONS:       6

 -----------------------------------------------------------------------------------

   CUMULATIVE VOLUMES               L**3   RATES FOR THIS TIME STEP           L**3/T
   ------------------                      ------------------------

                                     IN                                         IN
                                     --                                         --
        PRECIPITATION =         188432.87          PRECIPITATION =                  
           STREAMFLOW =                               STREAMFLOW =                  
     GW BOUNDARY FLOW =                         GW BOUNDARY FLOW =                  


                                    OUT                                        OUT
                                    ---                                        ---
   EVAPOTRANSPIRATION =         815444.65     EVAPOTRANSPIRATION =          41709.13
           STREAMFLOW =         164527.69             STREAMFLOW =          10159.31
     GW BOUNDARY FLOW =            760.84       GW BOUNDARY FLOW =             36.37

   INFLOWS - OUTFLOWS =        -792300.32     INFLOWS - OUTFLOWS =         -51904.82
             --------                                   --------

 TOTAL STORAGE CHANGE =        -790494.11         STORAGE CHANGE =         -51909.53
       --------------                             --------------
         LAND SURFACE =          18885.57           LAND SURFACE =         -43558.49
            SOIL ZONE =          48188.83              SOIL ZONE =           2053.01
     UNSATURATED ZONE =       -1090962.03       UNSATURATED ZONE =         -21361.65
       SATURATED ZONE =         233393.51         SATURATED ZONE =          10957.60

 OVERALL BUDGET ERROR =          -1806.21           BUDGET ERROR =              4.71


  PERCENT DISCREPANCY =             -0.18    PERCENT DISCREPANCY =              0.01



1
 SUMMARY VOLUMETRIC BUDGET FOR GSFLOW 
 DATE: 10 28 1990              CUMULATIVE TIME STEP:      28
 MODFLOW STRESS PERIOD      2     CURRENT TIME STEP:      28     ITERATIONS:       6

 -----------------------------------------------------------------------------------

   CUMULATIVE VOLUMES               L**3   RATES FOR THIS TIME STEP           L**3/T
   ------------------                      ------------------------

                                     IN                                         IN
                                     --                                         --
        PRECIPITATION =         188432.87          PRECIPITATION =                  
           STREAMFLOW =                               STREAMFLOW =                  
     GW BOUNDARY FLOW =                         GW BOUNDARY FLOW =                  


                                    OUT                                        OUT
                                    ---                                        ---
   EVAPOTRANSPIRATION =         943786.25     EVAPOTRANSPIRATION =          11825.75
           STREAMFLOW =         226198.14             STREAMFLOW =           8957.64
     GW BOUNDARY FLOW =           1014.04       GW BOUNDARY FLOW =             36.13

   INFLOWS - OUTFLOWS =        -982565.56     INFLOWS - OUTFLOWS =         -20819.51
             --------                                   --------

 TOTAL STORAGE CHANGE =        -980747.63         STORAGE CHANGE =         -20821.49
       --------------                             --------------
         LAND SURFACE =                             LAND SURFACE =                  
            SOIL ZONE =          19150.20              SOIL ZONE =          -3436.32
     UNSATURATED ZONE =       -1274636.50       UNSATURATED ZONE =         -23283.91
       SATURATED ZONE =         274738.67         SATURATED ZONE =           5898.74

 OVERALL BUDGET ERROR =          -1817.94           BUDGET ERROR =              1.98


  PERCENT DISCREPANCY =             -0.16    PERCENT DISCREPANCY =              0.01



1
 SUMMARY VOLUMETRIC BUDGET FOR GSFLOW 
 DATE: 11 04 1990              CUMULATIVE TIME STEP:       4
 MODFLOW STRESS PERIOD      3     CURRENT TIME STEP:      35     ITERATIONS:       6

 -----------------------------------------------------------------------------------

   CUMULATIVE VOLUMES               L**3   RATES FOR THIS TIME STEP           L**3/T
   ------------------                      ------------------------

                                     IN                                         IN
                                     --                                         --
        PRECIPITATION =         703113.06          PRECIPITATION =                  
           STREAMFLOW =                               STREAMFLOW =                  
     GW BOUNDARY FLOW =                         GW BOUNDARY FLOW =                  


                                    OUT                                        OUT
                                    ---                                        ---
   EVAPOTRANSPIRATION =        1004361.12     EVAPOTRANSPIRATION =          26280.47
           STREAMFLOW =         296575.43             STREAMFLOW =          10532.23
     GW BOUNDARY FLOW =           1267.08       GW BOUNDARY FLOW =             36.14

   INFLOWS - OUTFLOWS =        -599090.57     INFLOWS - OUTFLOWS =         -36848.83
             --------                                   --------

 TOTAL STORAGE CHANGE =        -597294.10         STORAGE CHANGE =         -36853.51
       --------------                             --------------
         LAND SURFACE =         132159.65           LAND SURFACE =        -160480.33
            SOIL ZONE =         356557.55              SOIL ZONE =         134353.68
     UNSATURATED ZONE =       -1420410.75       UNSATURATED ZONE =         -20102.65
       SATURATED ZONE =         334399.46         SATURATED ZONE =           9375.79

 OVERALL BUDGET ERROR =          -1796.47           BUDGET ERROR =              4.68


  PERCENT DISCREPANCY =             -0.14    PERCENT DISCREPANCY =              0.01



1
 SUMMARY VOLUMETRIC BUDGET FOR GSFLOW 
 DATE: 11 11 1990              CUMULATIVE TIME STEP:      11
 MODFLOW STRESS PERIOD      3     CURRENT TIME STEP:      42     ITERATIONS:       6

 -----------------------------------------------------------------------------------

   CUMULATIVE VOLUMES               L**3   RATES FOR THIS TIME STEP           L**3/T
   ------------------                      ------------------------

                                     IN                                         IN
                                     --                                         --
        PRECIPITATION =         703113.06          PRECIPITATION =                  
           STREAMFLOW =                               STREAMFLOW =                  
     GW BOUNDARY FLOW =                         GW BOUNDARY FLOW =                  


                                    OUT                                        OUT
                                    ---                                        ---
   EVAPOTRANSPIRATION =        1081513.59     EVAPOTRANSPIRATION =          12128.89
           STREAMFLOW =         367261.09             STREAMFLOW =           9620.94
     GW BOUNDARY FLOW =           1519.17       GW BOUNDARY FLOW =             35.92

   INFLOWS - OUTFLOWS =        -747180.79     INFLOWS - OUTFLOWS =         -21785.75
             --------                                   --------

 TOTAL STORAGE CHANGE =        -745405.26         STORAGE CHANGE =         -21788.47
       --------------                             --------------
         LAND SURFACE =            595.09           LAND SURFACE =          -1416.54
            SOIL ZONE =         429673.83              SOIL ZONE =          -5363.78
     UNSATURATED ZONE =       -1559864.97       UNSATURATED ZONE =         -19893.60
       SATURATED ZONE =         384190.78         SATURATED ZONE =           4885.45

 OVERALL BUDGET ERROR =          -1775.53           BUDGET ERROR =              2.72


  PERCENT DISCREPANCY =             -0.12    PERCENT DISCREPANCY =              0.01



1
 SUMMARY VOLUMETRIC BUDGET FOR GSFLOW 
 DATE: 11 18 1990              CUMULATIVE TIME STEP:      18
 MODFLOW STRESS PERIOD      3     CURRENT TIME STEP:      49     ITERATIONS:       6

 -----------------------------------------------------------------------------------

   CUMULATIVE VOLUMES               L**3   RATES FOR THIS TIME STEP           L**3/T
   ------------------                      ------------------------

                                     IN                                         IN
                                     --                                         --
        PRECIPITATION =         747883.35          PRECIPITATION =                  
           STREAMFLOW =                               STREAMFLOW =                  
     GW BOUNDARY FLOW =                         GW BOUNDARY FLOW =                  


                                    OUT                                        OUT
                                    ---                                        ---
   EVAPOTRANSPIRATION =        1153917.32     EVAPOTRANSPIRATION =           5054.33
           STREAMFLOW =         438804.91             STREAMFLOW =          10650.77
     GW BOUNDARY FLOW =           1770.48       GW BOUNDARY FLOW =             35.88

   INFLOWS - OUTFLOWS =        -846609.36     INFLOWS - OUTFLOWS =         -15740.98
             --------                                   --------

 TOTAL STORAGE CHANGE =        -844849.55         STORAGE CHANGE =         -15744.18
       --------------                             --------------
         LAND SURFACE =           7868.08           LAND SURFACE =          -3691.47
            SOIL ZONE =         412223.16              SOIL ZONE =           -675.24
     UNSATURATED ZONE =       -1693343.72       UNSATURATED ZONE =         -18649.45
       SATURATED ZONE =         428402.92         SATURATED ZONE =           7271.98

 OVERALL BUDGET ERROR =          -1759.81           BUDGET ERROR =              3.20


  PERCENT DISCREPANCY =             -0.11    PERCENT DISCREPANCY =              0.02



1
 SUMMARY VOLUMETRIC BUDGET FOR GSFLOW 
 DATE: 11 25 1990              CUMULATIVE TIME STEP:      25
 MODFLOW STRESS PERIOD      3     CURRENT TIME STEP:      56     ITERATIONS:       6

 -----------------------------------------------------------------------------------

   CUMULATIVE VOLUMES               L**3   RATES FOR THIS TIME STEP           L**3/T
   ------------------                      ------------------------

                                     IN                                         IN
                                     --                                         --
        PRECIPITATION =        1009043.38          PRECIPITATION =         186542.88
           STREAMFLOW =                               STREAMFLOW =                  
     GW BOUNDARY FLOW =                         GW BOUNDARY FLOW =                  


                                    OUT                                        OUT
                                    ---                                        ---
   EVAPOTRANSPIRATION =        1214345.50     EVAPOTRANSPIRATION =           3757.62
           STREAMFLOW =         514549.42             STREAMFLOW =          10731.14
     GW BOUNDARY FLOW =           2021.42       GW BOUNDARY FLOW =             35.79

   INFLOWS - OUTFLOWS =        -721872.97     INFLOWS - OUTFLOWS =         172018.33
             --------                                   --------

 TOTAL STORAGE CHANGE =        -720132.01         STORAGE CHANGE =         172016.10
       --------------                             --------------
         LAND SURFACE =          86180.68           LAND SURFACE =          69567.13
            SOIL ZONE =         537023.56              SOIL ZONE =         114165.41
     UNSATURATED ZONE =       -1821308.59       UNSATURATED ZONE =         -17971.43
       SATURATED ZONE =         477972.34         SATURATED ZONE =           6254.99

 OVERALL BUDGET ERROR =          -1740.95           BUDGET ERROR =              2.23


  PERCENT DISCREPANCY =             -0.10    PERCENT DISCREPANCY =              0.00



1
 SUMMARY VOLUMETRIC BUDGET FOR GSFLOW 
 DATE: 12 02 1990              CUMULATIVE TIME STEP:       2
 MODFLOW STRESS PERIOD      4     CURRENT TIME STEP:      63     ITERATIONS:       6

 -----------------------------------------------------------------------------------

   CUMULATIVE VOLUMES               L**3   RATES FOR THIS TIME STEP           L**3/T
   ------------------                      ------------------------

                                     IN                                         IN
                                     --                                         --
        PRECIPITATION =        1449284.55          PRECIPITATION =                  
           STREAMFLOW =                               STREAMFLOW =                  
     GW BOUNDARY FLOW =                         GW BOUNDARY FLOW =                  


                                    OUT                                        OUT
                                    ---                                        ---
   EVAPOTRANSPIRATION =        1220841.17     EVAPOTRANSPIRATION =            234.69
           STREAMFLOW =         591476.11             STREAMFLOW =          11039.64
     GW BOUNDARY FLOW =           2271.90       GW BOUNDARY FLOW =             35.77

   INFLOWS - OUTFLOWS =        -365304.63     INFLOWS - OUTFLOWS =         -11310.09
             --------                                   --------

 TOTAL STORAGE CHANGE =        -363579.03         STORAGE CHANGE =         -11312.02
       --------------                             --------------
         LAND SURFACE =         486845.62           LAND SURFACE =           -339.04
            SOIL ZONE =         571003.69              SOIL ZONE =            234.55
     UNSATURATED ZONE =       -1944497.10       UNSATURATED ZONE =         -17302.07
       SATURATED ZONE =         523068.75         SATURATED ZONE =           6094.54

 OVERALL BUDGET ERROR =          -1725.60           BUDGET ERROR =              1.93


  PERCENT DISCREPANCY =             -0.10    PERCENT DISCREPANCY =              0.02



1
 SUMMARY VOLUMETRIC BUDGET FOR GSFLOW 
 DATE: 12 09 1990              CUMULATIVE TIME STEP:       9
 MODFLOW STRESS PERIOD      4     CURRENT TIME STEP:      70     ITERATIONS:       6

 -----------------------------------------------------------------------------------

   CUMULATIVE VOLUMES               L**3   RATES FOR THIS TIME STEP           L**3/T
   ------------------                      ------------------------

                                     IN                                         IN
                                     --                                         --
        PRECIPITATION =        1449284.55          PRECIPITATION =                  
           STREAMFLOW =                               STREAMFLOW =                  
     GW BOUNDARY FLOW =                         GW BOUNDARY FLOW =                  


                                    OUT                                        OUT
                                    ---                                        ---
   EVAPOTRANSPIRATION =        1296676.90     EVAPOTRANSPIRATION =          13848.49
           STREAMFLOW =         668389.65             STREAMFLOW =          10742.06
     GW BOUNDARY FLOW =           2521.84       GW BOUNDARY FLOW =             35.64

   INFLOWS - OUTFLOWS =        -518303.84     INFLOWS - OUTFLOWS =         -24626.19
             --------                                   --------

 TOTAL STORAGE CHANGE =        -516588.51         STORAGE CHANGE =         -24626.96
       --------------                             --------------
         LAND SURFACE =          67215.41           LAND SURFACE =         -45889.70
            SOIL ZONE =         919152.25              SOIL ZONE =          33794.72
     UNSATURATED ZONE =       -2062656.39       UNSATURATED ZONE =         -16521.87
       SATURATED ZONE =         559700.22         SATURATED ZONE =           3989.89

 OVERALL BUDGET ERROR =          -1715.32           BUDGET ERROR =              0.78


  PERCENT DISCREPANCY =             -0.09    PERCENT DISCREPANCY =              0.00



1
 SUMMARY VOLUMETRIC BUDGET FOR GSFLOW 
 DATE: 12 16 1990              CUMULATIVE TIME STEP:      16
 MODFLOW STRESS PERIOD      4     CURRENT TIME STEP:      77     ITERATIONS:       5

 -----------------------------------------------------------------------------------

   CUMULATIVE VOLUMES               L**3   RATES FOR THIS TIME STEP           L**3/T
   ------------------                      ------------------------

                                     IN                                         IN
                                     --                                         --
        PRECIPITATION =        1804962.84          PRECIPITATION =                  
           STREAMFLOW =                               STREAMFLOW =                  
     GW BOUNDARY FLOW =                         GW BOUNDARY FLOW =                  


                                    OUT                                        OUT
                                    ---                                        ---
   EVAPOTRANSPIRATION =        1324953.54     EVAPOTRANSPIRATION =                  
           STREAMFLOW =         746838.29             STREAMFLOW =          11395.04
     GW BOUNDARY FLOW =           2771.22       GW BOUNDARY FLOW =             35.61

   INFLOWS - OUTFLOWS =        -269600.20     INFLOWS - OUTFLOWS =         -11430.65
             --------                                   --------

 TOTAL STORAGE CHANGE =        -267894.21         STORAGE CHANGE =         -11431.61
       --------------                             --------------
         LAND SURFACE =         252566.26           LAND SURFACE =                  
            SOIL ZONE =        1065398.55              SOIL ZONE =            148.61
     UNSATURATED ZONE =       -2176272.16       UNSATURATED ZONE =         -15968.74
       SATURATED ZONE =         590413.14         SATURATED ZONE =           4388.52

 OVERALL BUDGET ERROR =          -1705.99           BUDGET ERROR =              0.96


  PERCENT DISCREPANCY =             -0.08    PERCENT DISCREPANCY =              0.01



1
 SUMMARY VOLUMETRIC BUDGET FOR GSFLOW 
 DATE: 12 23 1990              CUMULATIVE TIME STEP:      23
 MODFLOW STRESS PERIOD      4     CURRENT TIME STEP:      84     ITERATIONS:       6

 -----------------------------------------------------------------------------------

   CUMULATIVE VOLUMES               L**3   RATES FOR THIS TIME STEP           L**3/T
   ------------------                      ------------------------

                                     IN                                         IN
                                     --                                         --
        PRECIPITATION =        2276236.55          PRECIPITATION =                  
           STREAMFLOW =                               STREAMFLOW =                  
     GW BOUNDARY FLOW =              0.08       GW BOUNDARY FLOW =              0.04


                                    OUT                                        OUT
                                    ---                                        ---
   EVAPOTRANSPIRATION =        1326011.14     EVAPOTRANSPIRATION =                  
           STREAMFLOW =         827029.93             STREAMFLOW =          11495.41
     GW BOUNDARY FLOW =           3020.24       GW BOUNDARY FLOW =             35.57

   INFLOWS - OUTFLOWS =         120175.33     INFLOWS - OUTFLOWS =         -11530.93
             --------                                   --------

 TOTAL STORAGE CHANGE =         121880.30         STORAGE CHANGE =         -11530.78
       --------------                             --------------
         LAND SURFACE =         722784.34           LAND SURFACE =                  
            SOIL ZONE =        1066483.94              SOIL ZONE =            158.76
     UNSATURATED ZONE =       -2285707.23       UNSATURATED ZONE =         -15387.96
       SATURATED ZONE =         618319.25         SATURATED ZONE =           3698.42

 OVERALL BUDGET ERROR =          -1704.98           BUDGET ERROR =             -0.15


  PERCENT DISCREPANCY =             -0.07    PERCENT DISCREPANCY =             -0.00



1
 SUMMARY VOLUMETRIC BUDGET FOR GSFLOW 
 DATE: 12 30 1990              CUMULATIVE TIME STEP:      30
 MODFLOW STRESS PERIOD      4     CURRENT TIME STEP:      91     ITERATIONS:       5

 -----------------------------------------------------------------------------------

   CUMULATIVE VOLUMES               L**3   RATES FOR THIS TIME STEP           L**3/T
   ------------------                      ------------------------

                                     IN                                         IN
                                     --                                         --
        PRECIPITATION =        2276236.55          PRECIPITATION =                  
           STREAMFLOW =                               STREAMFLOW =                  
     GW BOUNDARY FLOW =              0.77       GW BOUNDARY FLOW =              0.14


                                    OUT                                        OUT
                                    ---                                        ---
   EVAPOTRANSPIRATION =        1326578.64     EVAPOTRANSPIRATION =                  
           STREAMFLOW =         907895.63             STREAMFLOW =          11595.05
     GW BOUNDARY FLOW =           3269.34       GW BOUNDARY FLOW =             35.60

   INFLOWS - OUTFLOWS =          38493.71     INFLOWS - OUTFLOWS =         -11630.50
             --------                                   --------

 TOTAL STORAGE CHANGE =          40206.48         STORAGE CHANGE =         -11628.41
       --------------                             --------------
         LAND SURFACE =         722216.94           LAND SURFACE =                  
            SOIL ZONE =        1067639.50              SOIL ZONE =            170.33
     UNSATURATED ZONE =       -2391231.45       UNSATURATED ZONE =         -14845.61
       SATURATED ZONE =         641581.49         SATURATED ZONE =           3046.87

 OVERALL BUDGET ERROR =          -1712.77           BUDGET ERROR =             -2.10


  PERCENT DISCREPANCY =             -0.08    PERCENT DISCREPANCY =             -0.02



1
 SUMMARY VOLUMETRIC BUDGET FOR GSFLOW 
 DATE: 01 06 1991              CUMULATIVE TIME STEP:       6
 MODFLOW STRESS PERIOD      5     CURRENT TIME STEP:      98     ITERATIONS:       5

 -----------------------------------------------------------------------------------

   CUMULATIVE VOLUMES               L**3   RATES FOR THIS TIME STEP           L**3/T
   ------------------                      ------------------------

                                     IN                                         IN
                                     --                                         --
        PRECIPITATION =        2276236.55          PRECIPITATION =                  
           STREAMFLOW =                               STREAMFLOW =                  
     GW BOUNDARY FLOW =              2.09       GW BOUNDARY FLOW =              0.22


                                    OUT                                        OUT
                                    ---                                        ---
   EVAPOTRANSPIRATION =        1353579.61     EVAPOTRANSPIRATION =           3180.55
           STREAMFLOW =         989406.33             STREAMFLOW =          11676.52
     GW BOUNDARY FLOW =           3519.21       GW BOUNDARY FLOW =             35.75

   INFLOWS - OUTFLOWS =         -70266.51     INFLOWS - OUTFLOWS =         -14892.60
             --------                                   --------

 TOTAL STORAGE CHANGE =         -68531.32         STORAGE CHANGE =         -14888.48
       --------------                             --------------
         LAND SURFACE =         592099.77           LAND SURFACE =          -8106.31
            SOIL ZONE =        1172023.06              SOIL ZONE =           5108.24
     UNSATURATED ZONE =       -2492822.11       UNSATURATED ZONE =         -14283.31
       SATURATED ZONE =         660167.96         SATURATED ZONE =           2392.89

 OVERALL BUDGET ERROR =          -1735.20           BUDGET ERROR =             -4.12


  PERCENT DISCREPANCY =             -0.07    PERCENT DISCREPANCY =             -0.03



1
 SUMMARY VOLUMETRIC BUDGET FOR GSFLOW 
 DATE: 01 13 1991              CUMULATIVE TIME STEP:      13
 MODFLOW STRESS PERIOD      5     CURRENT TIME STEP:     105     ITERATIONS:       6

 -----------------------------------------------------------------------------------

   CUMULATIVE VOLUMES               L**3   RATES FOR THIS TIME STEP           L**3/T
   ------------------                      ------------------------

                                     IN                                         IN
                                     --                                         --
        PRECIPITATION =        2596386.94          PRECIPITATION =          10327.43
           STREAMFLOW =                               STREAMFLOW =                  
     GW BOUNDARY FLOW =              4.02       GW BOUNDARY FLOW =              0.31


                                    OUT                                        OUT
                                    ---                                        ---
   EVAPOTRANSPIRATION =        1420372.80     EVAPOTRANSPIRATION =          18633.93
           STREAMFLOW =        1071107.05             STREAMFLOW =          11585.86
     GW BOUNDARY FLOW =           3769.42       GW BOUNDARY FLOW =             35.73

   INFLOWS - OUTFLOWS =         101141.69     INFLOWS - OUTFLOWS =         -19927.78
             --------                                   --------

 TOTAL STORAGE CHANGE =         102907.29         STORAGE CHANGE =         -19924.89
       --------------                             --------------
         LAND SURFACE =         529885.07           LAND SURFACE =        -135264.71
            SOIL ZONE =        1490231.74              SOIL ZONE =         127948.03
     UNSATURATED ZONE =       -2590369.96       UNSATURATED ZONE =         -13730.33
       SATURATED ZONE =         673160.44         SATURATED ZONE =           1122.12

 OVERALL BUDGET ERROR =          -1765.60           BUDGET ERROR =             -2.89


  PERCENT DISCREPANCY =             -0.07    PERCENT DISCREPANCY =             -0.01



1
 SUMMARY VOLUMETRIC BUDGET FOR GSFLOW 
 DATE: 01 20 1991              CUMULATIVE TIME STEP:      20
 MODFLOW STRESS PERIOD      5     CURRENT TIME STEP:     112     ITERATIONS:       5

 -----------------------------------------------------------------------------------

   CUMULATIVE VOLUMES               L**3   RATES FOR THIS TIME STEP           L**3/T
   ------------------                      ------------------------

                                     IN                                         IN
                                     --                                         --
        PRECIPITATION =        2596386.94          PRECIPITATION =                  
           STREAMFLOW =                               STREAMFLOW =                  
     GW BOUNDARY FLOW =              6.55       GW BOUNDARY FLOW =              0.40


                                    OUT                                        OUT
                                    ---                                        ---
   EVAPOTRANSPIRATION =        1497504.65     EVAPOTRANSPIRATION =           2455.46
           STREAMFLOW =        1153361.74             STREAMFLOW =          11783.82
     GW BOUNDARY FLOW =           4019.65       GW BOUNDARY FLOW =             35.75

   INFLOWS - OUTFLOWS =         -58492.55     INFLOWS - OUTFLOWS =         -14274.63
             --------                                   --------

 TOTAL STORAGE CHANGE =         -56681.73         STORAGE CHANGE =         -14267.03
       --------------                             --------------
         LAND SURFACE =         356897.60           LAND SURFACE =           -433.81
            SOIL ZONE =        1588056.17              SOIL ZONE =          -1802.49
     UNSATURATED ZONE =       -2684047.34       UNSATURATED ZONE =         -13157.85
       SATURATED ZONE =         682411.83         SATURATED ZONE =           1127.11

 OVERALL BUDGET ERROR =          -1810.82           BUDGET ERROR =             -7.60


  PERCENT DISCREPANCY =             -0.07    PERCENT DISCREPANCY =             -0.05



1
 SUMMARY VOLUMETRIC BUDGET FOR GSFLOW 
 DATE: 01 27 1991              CUMULATIVE TIME STEP:      27
 MODFLOW STRESS PERIOD      5     CURRENT TIME STEP:     119     ITERATIONS:       5

 -----------------------------------------------------------------------------------

   CUMULATIVE VOLUMES               L**3   RATES FOR THIS TIME STEP           L**3/T
   ------------------                      ------------------------

                                     IN                                         IN
                                     --                                         --
        PRECIPITATION =        2596386.94          PRECIPITATION =                  
           STREAMFLOW =                               STREAMFLOW =                  
     GW BOUNDARY FLOW =              9.65       GW BOUNDARY FLOW =              0.48


                                    OUT                                        OUT
                                    ---                                        ---
   EVAPOTRANSPIRATION =        1523388.91     EVAPOTRANSPIRATION =           1704.54
           STREAMFLOW =        1236052.62             STREAMFLOW =          11846.01
     GW BOUNDARY FLOW =           4269.84       GW BOUNDARY FLOW =             35.74

   INFLOWS - OUTFLOWS =        -167314.78     INFLOWS - OUTFLOWS =         -13585.81
             --------                                   --------

 TOTAL STORAGE CHANGE =        -165444.59         STORAGE CHANGE =         -13576.94
       --------------                             --------------
         LAND SURFACE =         323033.09           LAND SURFACE =           -547.84
            SOIL ZONE =        1597781.89              SOIL ZONE =           -948.07
     UNSATURATED ZONE =       -2774219.62       UNSATURATED ZONE =         -12667.34
       SATURATED ZONE =         687960.05         SATURATED ZONE =            586.31

 OVERALL BUDGET ERROR =          -1870.19           BUDGET ERROR =             -8.87


  PERCENT DISCREPANCY =             -0.07    PERCENT DISCREPANCY =             -0.07



1
 SUMMARY VOLUMETRIC BUDGET FOR GSFLOW 
 DATE: 02 03 1991              CUMULATIVE TIME STEP:       3
 MODFLOW STRESS PERIOD      6     CURRENT TIME STEP:     126     ITERATIONS:       5

 -----------------------------------------------------------------------------------

   CUMULATIVE VOLUMES               L**3   RATES FOR THIS TIME STEP           L**3/T
   ------------------                      ------------------------

                                     IN                                         IN
                                     --                                         --
        PRECIPITATION =        3228422.31          PRECIPITATION =          30459.53
           STREAMFLOW =                               STREAMFLOW =                  
     GW BOUNDARY FLOW =             13.31       GW BOUNDARY FLOW =              0.55


                                    OUT                                        OUT
                                    ---                                        ---
   EVAPOTRANSPIRATION =        1630472.33     EVAPOTRANSPIRATION =          21417.61
           STREAMFLOW =        1319085.73             STREAMFLOW =          11891.34
     GW BOUNDARY FLOW =           4519.96       GW BOUNDARY FLOW =             35.73

   INFLOWS - OUTFLOWS =         274357.60     INFLOWS - OUTFLOWS =          -2884.58
             --------                                   --------

 TOTAL STORAGE CHANGE =         276296.72         STORAGE CHANGE =          -2874.22
       --------------                             --------------
         LAND SURFACE =         157683.43           LAND SURFACE =         -26376.35
            SOIL ZONE =        2290834.51              SOIL ZONE =          35776.88
     UNSATURATED ZONE =       -2861092.13       UNSATURATED ZONE =         -12199.14
       SATURATED ZONE =         688870.91         SATURATED ZONE =            -75.61

 OVERALL BUDGET ERROR =          -1939.13           BUDGET ERROR =            -10.37


  PERCENT DISCREPANCY =             -0.06    PERCENT DISCREPANCY =             -0.03



1
 SUMMARY VOLUMETRIC BUDGET FOR GSFLOW 
 DATE: 02 10 1991              CUMULATIVE TIME STEP:      10
 MODFLOW STRESS PERIOD      6     CURRENT TIME STEP:     133     ITERATIONS:       5

 -----------------------------------------------------------------------------------

   CUMULATIVE VOLUMES               L**3   RATES FOR THIS TIME STEP           L**3/T
   ------------------                      ------------------------

                                     IN                                         IN
                                     --                                         --
        PRECIPITATION =        3510173.01          PRECIPITATION =                  
           STREAMFLOW =                               STREAMFLOW =                  
     GW BOUNDARY FLOW =             17.48       GW BOUNDARY FLOW =              0.63


                                    OUT                                        OUT
                                    ---                                        ---
   EVAPOTRANSPIRATION =        1797890.04     EVAPOTRANSPIRATION =          25651.46
           STREAMFLOW =        1401155.92             STREAMFLOW =          11861.04
     GW BOUNDARY FLOW =           4769.94       GW BOUNDARY FLOW =             35.71

   INFLOWS - OUTFLOWS =         306374.59     INFLOWS - OUTFLOWS =         -37547.59
             --------                                   --------

 TOTAL STORAGE CHANGE =         308354.55         STORAGE CHANGE =         -37536.04
       --------------                             --------------
         LAND SURFACE =          75877.11           LAND SURFACE =          -8469.89
            SOIL ZONE =        2488903.01              SOIL ZONE =         -16905.10
     UNSATURATED ZONE =       -2944457.84       UNSATURATED ZONE =         -11726.74
       SATURATED ZONE =         688032.27         SATURATED ZONE =           -434.32

 OVERALL BUDGET ERROR =          -1979.96           BUDGET ERROR =            -11.55


  PERCENT DISCREPANCY =             -0.06    PERCENT DISCREPANCY =             -0.03



1
 SUMMARY VOLUMETRIC BUDGET FOR GSFLOW 
 DATE: 02 17 1991              CUMULATIVE TIME STEP:      17
 MODFLOW STRESS PERIOD      6     CURRENT TIME STEP:     140     ITERATIONS:       5

 -----------------------------------------------------------------------------------

   CUMULATIVE VOLUMES               L**3   RATES FOR THIS TIME STEP           L**3/T
   ------------------                      ------------------------

                                     IN                                         IN
                                     --                                         --
        PRECIPITATION =        3510173.01          PRECIPITATION =                  
           STREAMFLOW =                               STREAMFLOW =                  
     GW BOUNDARY FLOW =             22.16       GW BOUNDARY FLOW =              0.70


                                    OUT                                        OUT
                                    ---                                        ---
   EVAPOTRANSPIRATION =        2040924.96     EVAPOTRANSPIRATION =          23719.99
           STREAMFLOW =        1484456.97             STREAMFLOW =          11919.44
     GW BOUNDARY FLOW =           5019.83       GW BOUNDARY FLOW =             35.67

   INFLOWS - OUTFLOWS =         -20206.59     INFLOWS - OUTFLOWS =         -35674.40
             --------                                   --------

 TOTAL STORAGE CHANGE =         -18137.27         STORAGE CHANGE =         -35661.01
       --------------                             --------------
         LAND SURFACE =          17890.99           LAND SURFACE =          -1143.67
            SOIL ZONE =        2305527.91              SOIL ZONE =         -22418.01
     UNSATURATED ZONE =       -3024296.52       UNSATURATED ZONE =         -11119.39
       SATURATED ZONE =         682740.36         SATURATED ZONE =           -979.95

 OVERALL BUDGET ERROR =          -2069.32           BUDGET ERROR =            -13.39


  PERCENT DISCREPANCY =             -0.06    PERCENT DISCREPANCY =             -0.04



1
 SUMMARY VOLUMETRIC BUDGET FOR GSFLOW 
 DATE: 02 24 1991              CUMULATIVE TIME STEP:      24
 MODFLOW STRESS PERIOD      6     CURRENT TIME STEP:     147     ITERATIONS:       5

 -----------------------------------------------------------------------------------

   CUMULATIVE VOLUMES               L**3   RATES FOR THIS TIME STEP           L**3/T
   ------------------                      ------------------------

                                     IN                                         IN
                                     --                                         --
        PRECIPITATION =        3510173.01          PRECIPITATION =                  
           STREAMFLOW =                               STREAMFLOW =                  
     GW BOUNDARY FLOW =             27.30       GW BOUNDARY FLOW =              0.76


                                    OUT                                        OUT
                                    ---                                        ---
   EVAPOTRANSPIRATION =        2254608.25     EVAPOTRANSPIRATION =          21654.73
           STREAMFLOW =        1566718.41             STREAMFLOW =          11891.45
     GW BOUNDARY FLOW =           5268.83       GW BOUNDARY FLOW =             35.50

   INFLOWS - OUTFLOWS =        -316395.18     INFLOWS - OUTFLOWS =         -33580.92
             --------                                   --------

 TOTAL STORAGE CHANGE =        -314279.68         STORAGE CHANGE =         -33565.82
       --------------                             --------------
         LAND SURFACE =           7435.72           LAND SURFACE =           -217.69
            SOIL ZONE =        2103803.39              SOIL ZONE =         -21142.30
     UNSATURATED ZONE =       -3100475.20       UNSATURATED ZONE =         -10697.94
       SATURATED ZONE =         674956.41         SATURATED ZONE =          -1507.89

 OVERALL BUDGET ERROR =          -2115.50           BUDGET ERROR =            -15.10


  PERCENT DISCREPANCY =             -0.06    PERCENT DISCREPANCY =             -0.04



1
 SUMMARY VOLUMETRIC BUDGET FOR GSFLOW 
 DATE: 03 03 1991              CUMULATIVE TIME STEP:       3
 MODFLOW STRESS PERIOD      7     CURRENT TIME STEP:     154     ITERATIONS:       5

 -----------------------------------------------------------------------------------

   CUMULATIVE VOLUMES               L**3   RATES FOR THIS TIME STEP           L**3/T
   ------------------                      ------------------------

                                     IN                                         IN
                                     --                                         --
        PRECIPITATION =        6220189.63          PRECIPITATION =        1243187.24
           STREAMFLOW =                               STREAMFLOW =                  
     GW BOUNDARY FLOW =             32.91       GW BOUNDARY FLOW =              0.83


                                    OUT                                        OUT
                                    ---                                        ---
   EVAPOTRANSPIRATION =        2406752.63     EVAPOTRANSPIRATION =           8346.02
           STREAMFLOW =        1649563.03             STREAMFLOW =          11815.90
     GW BOUNDARY FLOW =           5516.58       GW BOUNDARY FLOW =             35.32

   INFLOWS - OUTFLOWS =        2158390.30     INFLOWS - OUTFLOWS =        1222990.83
             --------                                   --------

 TOTAL STORAGE CHANGE =        2160607.57         STORAGE CHANGE =        1223007.22
       --------------                             --------------
         LAND SURFACE =        2352423.56           LAND SURFACE =         893797.52
            SOIL ZONE =        2321221.82              SOIL ZONE =         341851.39
     UNSATURATED ZONE =       -3173573.83       UNSATURATED ZONE =         -10285.30
       SATURATED ZONE =         660536.03         SATURATED ZONE =          -2356.39

 OVERALL BUDGET ERROR =          -2217.28           BUDGET ERROR =            -16.40


  PERCENT DISCREPANCY =             -0.04    PERCENT DISCREPANCY =             -0.00



1
 SUMMARY VOLUMETRIC BUDGET FOR GSFLOW 
 DATE: 03 10 1991              CUMULATIVE TIME STEP:      10
 MODFLOW STRESS PERIOD      7     CURRENT TIME STEP:     161     ITERATIONS:       5

 -----------------------------------------------------------------------------------

   CUMULATIVE VOLUMES               L**3   RATES FOR THIS TIME STEP           L**3/T
   ------------------                      ------------------------

                                     IN                                         IN
                                     --                                         --
        PRECIPITATION =        8746030.42          PRECIPITATION =          32888.55
           STREAMFLOW =                               STREAMFLOW =                  
     GW BOUNDARY FLOW =             38.94       GW BOUNDARY FLOW =              0.89


                                    OUT                                        OUT
                                    ---                                        ---
   EVAPOTRANSPIRATION =        2470870.34     EVAPOTRANSPIRATION =           7390.72
           STREAMFLOW =        1759503.20             STREAMFLOW =          12554.95
     GW BOUNDARY FLOW =           5763.99       GW BOUNDARY FLOW =             35.23

   INFLOWS - OUTFLOWS =        4509931.84     INFLOWS - OUTFLOWS =          12908.54
             --------                                   --------

 TOTAL STORAGE CHANGE =        4512226.71         STORAGE CHANGE =          12926.56
       --------------                             --------------
         LAND SURFACE =        2489799.29           LAND SURFACE =         -20139.51
            SOIL ZONE =        4567218.26              SOIL ZONE =          36670.20
     UNSATURATED ZONE =       -3191128.48       UNSATURATED ZONE =          -1396.48
       SATURATED ZONE =         646337.64         SATURATED ZONE =          -2207.65

 OVERALL BUDGET ERROR =          -2294.87           BUDGET ERROR =            -18.03


  PERCENT DISCREPANCY =             -0.03    PERCENT DISCREPANCY =             -0.05



1
 SUMMARY VOLUMETRIC BUDGET FOR GSFLOW 
 DATE: 03 17 1991              CUMULATIVE TIME STEP:      17
 MODFLOW STRESS PERIOD      7     CURRENT TIME STEP:     168     ITERATIONS:       5

 -----------------------------------------------------------------------------------

   CUMULATIVE VOLUMES               L**3   RATES FOR THIS TIME STEP           L**3/T
   ------------------                      ------------------------

                                     IN                                         IN
                                     --                                         --
        PRECIPITATION =        9897129.71          PRECIPITATION =         157865.04
           STREAMFLOW =                               STREAMFLOW =                  
     GW BOUNDARY FLOW =             45.41       GW BOUNDARY FLOW =              0.95


                                    OUT                                        OUT
                                    ---                                        ---
   EVAPOTRANSPIRATION =        2494334.19     EVAPOTRANSPIRATION =           6885.15
           STREAMFLOW =        1848732.36             STREAMFLOW =          12804.86
     GW BOUNDARY FLOW =           6010.16       GW BOUNDARY FLOW =             35.11

   INFLOWS - OUTFLOWS =        5548098.41     INFLOWS - OUTFLOWS =         138140.88
             --------                                   --------

 TOTAL STORAGE CHANGE =        5550503.04         STORAGE CHANGE =         138160.04
       --------------                             --------------
         LAND SURFACE =        3617387.87           LAND SURFACE =         151296.14
            SOIL ZONE =        4504803.24              SOIL ZONE =          -8541.07
     UNSATURATED ZONE =       -3202546.17       UNSATURATED ZONE =          -2053.57
       SATURATED ZONE =         630858.09         SATURATED ZONE =          -2541.46

 OVERALL BUDGET ERROR =          -2404.62           BUDGET ERROR =            -19.16


  PERCENT DISCREPANCY =             -0.02    PERCENT DISCREPANCY =             -0.01



1
 SUMMARY VOLUMETRIC BUDGET FOR GSFLOW 
 DATE: 03 24 1991              CUMULATIVE TIME STEP:      24
 MODFLOW STRESS PERIOD      7     CURRENT TIME STEP:     175     ITERATIONS:       5

 -----------------------------------------------------------------------------------

   CUMULATIVE VOLUMES               L**3   RATES FOR THIS TIME STEP           L**3/T
   ------------------                      ------------------------

                                     IN                                         IN
                                     --                                         --
        PRECIPITATION =        1.1673D+07          PRECIPITATION =        1230031.83
           STREAMFLOW =                               STREAMFLOW =                  
     GW BOUNDARY FLOW =             52.28       GW BOUNDARY FLOW =              1.01


                                    OUT                                        OUT
                                    ---                                        ---
   EVAPOTRANSPIRATION =        2528971.18     EVAPOTRANSPIRATION =           4289.83
           STREAMFLOW =        1939950.46             STREAMFLOW =          13202.61
     GW BOUNDARY FLOW =           6255.46       GW BOUNDARY FLOW =             35.00

   INFLOWS - OUTFLOWS =        7197986.68     INFLOWS - OUTFLOWS =        1212505.40
             --------                                   --------

 TOTAL STORAGE CHANGE =        7200505.84         STORAGE CHANGE =        1212524.97
       --------------                             --------------
         LAND SURFACE =        5347521.52           LAND SURFACE =        1227877.70
            SOIL ZONE =        4457795.00              SOIL ZONE =         -10433.48
     UNSATURATED ZONE =       -3218055.16       UNSATURATED ZONE =          -2370.18
       SATURATED ZONE =         613244.48         SATURATED ZONE =          -2549.07

 OVERALL BUDGET ERROR =          -2519.17           BUDGET ERROR =            -19.57


  PERCENT DISCREPANCY =             -0.02    PERCENT DISCREPANCY =             -0.00



1
 SUMMARY VOLUMETRIC BUDGET FOR GSFLOW 
 DATE: 03 31 1991              CUMULATIVE TIME STEP:      31
 MODFLOW STRESS PERIOD      7     CURRENT TIME STEP:     182     ITERATIONS:       5

 -----------------------------------------------------------------------------------

   CUMULATIVE VOLUMES               L**3   RATES FOR THIS TIME STEP           L**3/T
   ------------------                      ------------------------

                                     IN                                         IN
                                     --                                         --
        PRECIPITATION =        1.2495D+07          PRECIPITATION =                  
           STREAMFLOW =                               STREAMFLOW =                  
     GW BOUNDARY FLOW =             59.54       GW BOUNDARY FLOW =              1.06


                                    OUT                                        OUT
                                    ---                                        ---
   EVAPOTRANSPIRATION =        2649990.59     EVAPOTRANSPIRATION =          47925.31
           STREAMFLOW =        2035095.72             STREAMFLOW =          14267.06
     GW BOUNDARY FLOW =           6500.07       GW BOUNDARY FLOW =             34.92

   INFLOWS - OUTFLOWS =        7803798.45     INFLOWS - OUTFLOWS =         -62226.23
             --------                                   --------

 TOTAL STORAGE CHANGE =        7806456.12         STORAGE CHANGE =         -62206.17
       --------------                             --------------
         LAND SURFACE =        5892155.22           LAND SURFACE =        -150773.77
            SOIL ZONE =        4552787.37              SOIL ZONE =          92342.58
     UNSATURATED ZONE =       -3233533.98       UNSATURATED ZONE =          -1163.57
       SATURATED ZONE =         595047.50         SATURATED ZONE =          -2611.42

 OVERALL BUDGET ERROR =          -2657.67           BUDGET ERROR =            -20.06


  PERCENT DISCREPANCY =             -0.02    PERCENT DISCREPANCY =             -0.03



1
 SUMMARY VOLUMETRIC BUDGET FOR GSFLOW 
 DATE: 04 07 1991              CUMULATIVE TIME STEP:       7
 MODFLOW STRESS PERIOD      8     CURRENT TIME STEP:     189     ITERATIONS:       6

 -----------------------------------------------------------------------------------

   CUMULATIVE VOLUMES               L**3   RATES FOR THIS TIME STEP           L**3/T
   ------------------                      ------------------------

                                     IN                                         IN
                                     --                                         --
        PRECIPITATION =        1.3018D+07          PRECIPITATION =                  
           STREAMFLOW =                               STREAMFLOW =                  
     GW BOUNDARY FLOW =             67.18       GW BOUNDARY FLOW =              1.11


                                    OUT                                        OUT
                                    ---                                        ---
   EVAPOTRANSPIRATION =        2957873.87     EVAPOTRANSPIRATION =          15898.60
           STREAMFLOW =        2265710.04             STREAMFLOW =          42845.95
     GW BOUNDARY FLOW =           6746.19       GW BOUNDARY FLOW =             35.32

   INFLOWS - OUTFLOWS =        7787473.82     INFLOWS - OUTFLOWS =         -58778.77
             --------                                   --------

 TOTAL STORAGE CHANGE =        7790217.20         STORAGE CHANGE =         -58770.52
       --------------                             --------------
         LAND SURFACE =        4252635.06           LAND SURFACE =         -72897.15
            SOIL ZONE =        6157328.41              SOIL ZONE =           4849.02
     UNSATURATED ZONE =       -3198837.35       UNSATURATED ZONE =          11044.92
       SATURATED ZONE =         579091.07         SATURATED ZONE =          -1767.31

 OVERALL BUDGET ERROR =          -2743.38           BUDGET ERROR =             -8.25


  PERCENT DISCREPANCY =             -0.02    PERCENT DISCREPANCY =             -0.01



1
 SUMMARY VOLUMETRIC BUDGET FOR GSFLOW 
 DATE: 04 14 1991              CUMULATIVE TIME STEP:      14
 MODFLOW STRESS PERIOD      8     CURRENT TIME STEP:     196     ITERATIONS:       7

 -----------------------------------------------------------------------------------

   CUMULATIVE VOLUMES               L**3   RATES FOR THIS TIME STEP           L**3/T
   ------------------                      ------------------------

                                     IN                                         IN
                                     --                                         --
        PRECIPITATION =        1.3018D+07          PRECIPITATION =                  
           STREAMFLOW =                               STREAMFLOW =                  
     GW BOUNDARY FLOW =             75.14       GW BOUNDARY FLOW =              1.16


                                    OUT                                        OUT
                                    ---                                        ---
   EVAPOTRANSPIRATION =        3141796.69     EVAPOTRANSPIRATION =          42060.22
           STREAMFLOW =        2693992.29             STREAMFLOW =          74281.65
     GW BOUNDARY FLOW =           6994.60       GW BOUNDARY FLOW =             35.60

   INFLOWS - OUTFLOWS =        7175028.30     INFLOWS - OUTFLOWS =        -116376.31
             --------                                   --------

 TOTAL STORAGE CHANGE =        7177805.42         STORAGE CHANGE =        -116373.39
       --------------                             --------------
         LAND SURFACE =        3592422.63           LAND SURFACE =        -191140.97
            SOIL ZONE =        6139821.27              SOIL ZONE =          65585.28
     UNSATURATED ZONE =       -3124976.62       UNSATURATED ZONE =          10085.58
       SATURATED ZONE =         570538.15         SATURATED ZONE =           -903.27

 OVERALL BUDGET ERROR =          -2777.12           BUDGET ERROR =             -2.93


  PERCENT DISCREPANCY =             -0.02    PERCENT DISCREPANCY =             -0.00



1
 SUMMARY VOLUMETRIC BUDGET FOR GSFLOW 
 DATE: 04 21 1991              CUMULATIVE TIME STEP:      21
 MODFLOW STRESS PERIOD      8     CURRENT TIME STEP:     203     ITERATIONS:       9

 -----------------------------------------------------------------------------------

   CUMULATIVE VOLUMES               L**3   RATES FOR THIS TIME STEP           L**3/T
   ------------------                      ------------------------

                                     IN                                         IN
                                     --                                         --
        PRECIPITATION =        1.3034D+07          PRECIPITATION =                  
           STREAMFLOW =                               STREAMFLOW =                  
     GW BOUNDARY FLOW =             83.40       GW BOUNDARY FLOW =              1.20


                                    OUT                                        OUT
                                    ---                                        ---
   EVAPOTRANSPIRATION =        3395417.70     EVAPOTRANSPIRATION =          46843.68
           STREAMFLOW =        3247382.59             STREAMFLOW =          91002.41
     GW BOUNDARY FLOW =           7243.68       GW BOUNDARY FLOW =             35.67

   INFLOWS - OUTFLOWS =        6384101.52     INFLOWS - OUTFLOWS =        -137880.56
             --------                                   --------

 TOTAL STORAGE CHANGE =        6386893.75         STORAGE CHANGE =        -137879.62
       --------------                             --------------
         LAND SURFACE =        2435410.73           LAND SURFACE =        -213938.54
            SOIL ZONE =        6436393.43              SOIL ZONE =          64435.17
     UNSATURATED ZONE =       -3050802.37       UNSATURATED ZONE =          12036.60
       SATURATED ZONE =         565891.96         SATURATED ZONE =           -412.85

 OVERALL BUDGET ERROR =          -2792.23           BUDGET ERROR =             -0.94


  PERCENT DISCREPANCY =             -0.02    PERCENT DISCREPANCY =             -0.00



1
 SUMMARY VOLUMETRIC BUDGET FOR GSFLOW 
 DATE: 04 28 1991              CUMULATIVE TIME STEP:      28
 MODFLOW STRESS PERIOD      8     CURRENT TIME STEP:     210     ITERATIONS:       7

 -----------------------------------------------------------------------------------

   CUMULATIVE VOLUMES               L**3   RATES FOR THIS TIME STEP           L**3/T
   ------------------                      ------------------------

                                     IN                                         IN
                                     --                                         --
        PRECIPITATION =        1.3303D+07          PRECIPITATION =                  
           STREAMFLOW =                               STREAMFLOW =                  
     GW BOUNDARY FLOW =             91.94       GW BOUNDARY FLOW =              1.24


                                    OUT                                        OUT
                                    ---                                        ---
   EVAPOTRANSPIRATION =        3663519.66     EVAPOTRANSPIRATION =          58070.50
           STREAMFLOW =        3895862.67             STREAMFLOW =          92216.11
     GW BOUNDARY FLOW =           7493.04       GW BOUNDARY FLOW =             35.57

   INFLOWS - OUTFLOWS =        5736647.07     INFLOWS - OUTFLOWS =        -150320.94
             --------                                   --------

 TOTAL STORAGE CHANGE =        5739452.47         STORAGE CHANGE =        -150319.69
       --------------                             --------------
         LAND SURFACE =        1696862.83           LAND SURFACE =        -133863.59
            SOIL ZONE =        6443502.95              SOIL ZONE =         -28111.51
     UNSATURATED ZONE =       -2966845.51       UNSATURATED ZONE =          11461.71
       SATURATED ZONE =         565932.21         SATURATED ZONE =            193.70

 OVERALL BUDGET ERROR =          -2805.41           BUDGET ERROR =             -1.25


  PERCENT DISCREPANCY =             -0.02    PERCENT DISCREPANCY =             -0.00



1
 SUMMARY VOLUMETRIC BUDGET FOR GSFLOW 
 DATE: 05 05 1991              CUMULATIVE TIME STEP:       5
 MODFLOW STRESS PERIOD      9     CURRENT TIME STEP:     217     ITERATIONS:       7

 -----------------------------------------------------------------------------------

   CUMULATIVE VOLUMES               L**3   RATES FOR THIS TIME STEP           L**3/T
   ------------------                      ------------------------

                                     IN                                         IN
                                     --                                         --
        PRECIPITATION =        1.3510D+07          PRECIPITATION =                  
           STREAMFLOW =                               STREAMFLOW =                  
     GW BOUNDARY FLOW =            100.74       GW BOUNDARY FLOW =              1.27


                                    OUT                                        OUT
                                    ---                                        ---
   EVAPOTRANSPIRATION =        4040277.42     EVAPOTRANSPIRATION =          90182.26
           STREAMFLOW =        4467607.68             STREAMFLOW =          83079.69
     GW BOUNDARY FLOW =           7740.73       GW BOUNDARY FLOW =             35.33

   INFLOWS - OUTFLOWS =        4994183.04     INFLOWS - OUTFLOWS =        -173296.00
             --------                                   --------

 TOTAL STORAGE CHANGE =        4996996.05         STORAGE CHANGE =        -173295.35
       --------------                             --------------
         LAND SURFACE =        1003116.62           LAND SURFACE =        -147007.10
            SOIL ZONE =        6322241.93              SOIL ZONE =         -36516.01
     UNSATURATED ZONE =       -2894610.25       UNSATURATED ZONE =          10153.61
       SATURATED ZONE =         566247.76         SATURATED ZONE =             74.15

 OVERALL BUDGET ERROR =          -2813.01           BUDGET ERROR =             -0.65


  PERCENT DISCREPANCY =             -0.02    PERCENT DISCREPANCY =             -0.00



1
 SUMMARY VOLUMETRIC BUDGET FOR GSFLOW 
 DATE: 05 12 1991              CUMULATIVE TIME STEP:      12
 MODFLOW STRESS PERIOD      9     CURRENT TIME STEP:     224     ITERATIONS:       7

 -----------------------------------------------------------------------------------

   CUMULATIVE VOLUMES               L**3   RATES FOR THIS TIME STEP           L**3/T
   ------------------                      ------------------------

                                     IN                                         IN
                                     --                                         --
        PRECIPITATION =        1.4029D+07          PRECIPITATION =                  
           STREAMFLOW =                               STREAMFLOW =                  
     GW BOUNDARY FLOW =            109.80       GW BOUNDARY FLOW =              1.31


                                    OUT                                        OUT
                                    ---                                        ---
   EVAPOTRANSPIRATION =        4435664.69     EVAPOTRANSPIRATION =          68750.33
           STREAMFLOW =        5003088.56             STREAMFLOW =          85415.00
     GW BOUNDARY FLOW =           7986.75       GW BOUNDARY FLOW =             35.17

   INFLOWS - OUTFLOWS =        4582591.95     INFLOWS - OUTFLOWS =        -154199.18
             --------                                   --------

 TOTAL STORAGE CHANGE =        4585408.07         STORAGE CHANGE =        -154198.72
       --------------                             --------------
         LAND SURFACE =         555531.38           LAND SURFACE =        -204072.74
            SOIL ZONE =        6293620.40              SOIL ZONE =          40846.88
     UNSATURATED ZONE =       -2832798.36       UNSATURATED ZONE =           8745.57
       SATURATED ZONE =         569054.65         SATURATED ZONE =            281.56

 OVERALL BUDGET ERROR =          -2816.12           BUDGET ERROR =             -0.46


  PERCENT DISCREPANCY =             -0.02    PERCENT DISCREPANCY =             -0.00



1
 SUMMARY VOLUMETRIC BUDGET FOR GSFLOW 
 DATE: 05 19 1991              CUMULATIVE TIME STEP:      19
 MODFLOW STRESS PERIOD      9     CURRENT TIME STEP:     231     ITERATIONS:       7

 -----------------------------------------------------------------------------------

   CUMULATIVE VOLUMES               L**3   RATES FOR THIS TIME STEP           L**3/T
   ------------------                      ------------------------

                                     IN                                         IN
                                     --                                         --
        PRECIPITATION =        1.4365D+07          PRECIPITATION =                  
           STREAMFLOW =                               STREAMFLOW =                  
     GW BOUNDARY FLOW =            119.14       GW BOUNDARY FLOW =              1.35


                                    OUT                                        OUT
                                    ---                                        ---
   EVAPOTRANSPIRATION =        4874100.39     EVAPOTRANSPIRATION =          20369.32
           STREAMFLOW =        5449399.93             STREAMFLOW =          55157.79
     GW BOUNDARY FLOW =           8230.49       GW BOUNDARY FLOW =             34.64

   INFLOWS - OUTFLOWS =        4033766.64     INFLOWS - OUTFLOWS =         -75560.40
             --------                                   --------

 TOTAL STORAGE CHANGE =        4036582.71         STORAGE CHANGE =         -75560.77
       --------------                             --------------
         LAND SURFACE =         218834.82           LAND SURFACE =         -22220.84
            SOIL ZONE =        6030419.79              SOIL ZONE =         -59339.48
     UNSATURATED ZONE =       -2785089.05       UNSATURATED ZONE =           5429.74
       SATURATED ZONE =         572417.14         SATURATED ZONE =            569.82

 OVERALL BUDGET ERROR =          -2816.08           BUDGET ERROR =              0.37


  PERCENT DISCREPANCY =             -0.02    PERCENT DISCREPANCY =              0.00



1
 SUMMARY VOLUMETRIC BUDGET FOR GSFLOW 
 DATE: 05 26 1991              CUMULATIVE TIME STEP:      26
 MODFLOW STRESS PERIOD      9     CURRENT TIME STEP:     238     ITERATIONS:       6

 -----------------------------------------------------------------------------------

   CUMULATIVE VOLUMES               L**3   RATES FOR THIS TIME STEP           L**3/T
   ------------------                      ------------------------

                                     IN                                         IN
                                     --                                         --
        PRECIPITATION =        1.4426D+07          PRECIPITATION =                  
           STREAMFLOW =                               STREAMFLOW =                  
     GW BOUNDARY FLOW =            128.76       GW BOUNDARY FLOW =              1.39


                                    OUT                                        OUT
                                    ---                                        ---
   EVAPOTRANSPIRATION =        5558576.63     EVAPOTRANSPIRATION =          76940.71
           STREAMFLOW =        5752855.07             STREAMFLOW =          30979.83
     GW BOUNDARY FLOW =           8471.13       GW BOUNDARY FLOW =             34.12

   INFLOWS - OUTFLOWS =        3106723.54     INFLOWS - OUTFLOWS =        -107953.27
             --------                                   --------

 TOTAL STORAGE CHANGE =        3109537.95         STORAGE CHANGE =        -107952.57
       --------------                             --------------
         LAND SURFACE =          51939.66           LAND SURFACE =          -7710.54
            SOIL ZONE =        5248871.84              SOIL ZONE =         -99885.54
     UNSATURATED ZONE =       -2764946.28       UNSATURATED ZONE =           -149.58
       SATURATED ZONE =         573672.74         SATURATED ZONE =           -206.92

 OVERALL BUDGET ERROR =          -2814.41           BUDGET ERROR =             -0.70


  PERCENT DISCREPANCY =             -0.02    PERCENT DISCREPANCY =             -0.00



1
 SUMMARY VOLUMETRIC BUDGET FOR GSFLOW 
 DATE: 06 02 1991              CUMULATIVE TIME STEP:       2
 MODFLOW STRESS PERIOD     10     CURRENT TIME STEP:     245     ITERATIONS:       6

 -----------------------------------------------------------------------------------

   CUMULATIVE VOLUMES               L**3   RATES FOR THIS TIME STEP           L**3/T
   ------------------                      ------------------------

                                     IN                                         IN
                                     --                                         --
        PRECIPITATION =        1.4671D+07          PRECIPITATION =                  
           STREAMFLOW =                               STREAMFLOW =                  
     GW BOUNDARY FLOW =            138.66       GW BOUNDARY FLOW =              1.43


                                    OUT                                        OUT
                                    ---                                        ---
   EVAPOTRANSPIRATION =        6146903.31     EVAPOTRANSPIRATION =         127367.25
           STREAMFLOW =        5962429.24             STREAMFLOW =          25688.95
     GW BOUNDARY FLOW =           8709.21       GW BOUNDARY FLOW =             33.87

   INFLOWS - OUTFLOWS =        2553071.70     INFLOWS - OUTFLOWS =        -153088.64
             --------                                   --------

 TOTAL STORAGE CHANGE =        2555905.38         STORAGE CHANGE =        -153085.20
       --------------                             --------------
         LAND SURFACE =          18584.49           LAND SURFACE =          -3939.55
            SOIL ZONE =        4747401.34              SOIL ZONE =        -145063.21
     UNSATURATED ZONE =       -2779480.96       UNSATURATED ZONE =          -3166.01
       SATURATED ZONE =         569400.51         SATURATED ZONE =           -916.43

 OVERALL BUDGET ERROR =          -2833.67           BUDGET ERROR =             -3.43


  PERCENT DISCREPANCY =             -0.02    PERCENT DISCREPANCY =             -0.00



1
 SUMMARY VOLUMETRIC BUDGET FOR GSFLOW 
 DATE: 06 09 1991              CUMULATIVE TIME STEP:       9
 MODFLOW STRESS PERIOD     10     CURRENT TIME STEP:     252     ITERATIONS:       7

 -----------------------------------------------------------------------------------

   CUMULATIVE VOLUMES               L**3   RATES FOR THIS TIME STEP           L**3/T
   ------------------                      ------------------------

                                     IN                                         IN
                                     --                                         --
        PRECIPITATION =        1.4671D+07          PRECIPITATION =                  
           STREAMFLOW =                               STREAMFLOW =                  
     GW BOUNDARY FLOW =            148.86       GW BOUNDARY FLOW =              1.47


                                    OUT                                        OUT
                                    ---                                        ---
   EVAPOTRANSPIRATION =        6934123.28     EVAPOTRANSPIRATION =         172205.04
           STREAMFLOW =        6113375.92             STREAMFLOW =          18718.70
     GW BOUNDARY FLOW =           8945.16       GW BOUNDARY FLOW =             33.59

   INFLOWS - OUTFLOWS =        1614679.30     INFLOWS - OUTFLOWS =        -190955.86
             --------                                   --------

 TOTAL STORAGE CHANGE =        1617552.77         STORAGE CHANGE =        -190949.66
       --------------                             --------------
         LAND SURFACE =           3507.01           LAND SURFACE =          -2050.96
            SOIL ZONE =        3871823.48              SOIL ZONE =        -180291.09
     UNSATURATED ZONE =       -2816433.67       UNSATURATED ZONE =          -6489.59
       SATURATED ZONE =         558655.95         SATURATED ZONE =          -2118.03

 OVERALL BUDGET ERROR =          -2873.47           BUDGET ERROR =             -6.19


  PERCENT DISCREPANCY =             -0.02    PERCENT DISCREPANCY =             -0.00



1
 SUMMARY VOLUMETRIC BUDGET FOR GSFLOW 
 DATE: 06 16 1991              CUMULATIVE TIME STEP:      16
 MODFLOW STRESS PERIOD     10     CURRENT TIME STEP:     259     ITERATIONS:       6

 -----------------------------------------------------------------------------------

   CUMULATIVE VOLUMES               L**3   RATES FOR THIS TIME STEP           L**3/T
   ------------------                      ------------------------

                                     IN                                         IN
                                     --                                         --
        PRECIPITATION =        1.4671D+07          PRECIPITATION =                  
           STREAMFLOW =                               STREAMFLOW =                  
     GW BOUNDARY FLOW =            159.34       GW BOUNDARY FLOW =              1.51


                                    OUT                                        OUT
                                    ---                                        ---
   EVAPOTRANSPIRATION =        7949097.80     EVAPOTRANSPIRATION =         116805.39
           STREAMFLOW =        6231081.20             STREAMFLOW =          16247.03
     GW BOUNDARY FLOW =           9179.37       GW BOUNDARY FLOW =             33.38

   INFLOWS - OUTFLOWS =         481775.77     INFLOWS - OUTFLOWS =        -133084.29
             --------                                   --------

 TOTAL STORAGE CHANGE =         484713.10         STORAGE CHANGE =        -133073.41
       --------------                             --------------
         LAND SURFACE =             96.44           LAND SURFACE =            -47.78
            SOIL ZONE =        2848336.02              SOIL ZONE =        -113177.57
     UNSATURATED ZONE =       -2902538.54       UNSATURATED ZONE =         -16210.74
       SATURATED ZONE =         538819.18         SATURATED ZONE =          -3637.32

 OVERALL BUDGET ERROR =          -2937.33           BUDGET ERROR =            -10.87


  PERCENT DISCREPANCY =             -0.02    PERCENT DISCREPANCY =             -0.01



1
 SUMMARY VOLUMETRIC BUDGET FOR GSFLOW 
 DATE: 06 23 1991              CUMULATIVE TIME STEP:      23
 MODFLOW STRESS PERIOD     10     CURRENT TIME STEP:     266     ITERATIONS:       5

 -----------------------------------------------------------------------------------

   CUMULATIVE VOLUMES               L**3   RATES FOR THIS TIME STEP           L**3/T
   ------------------                      ------------------------

                                     IN                                         IN
                                     --                                         --
        PRECIPITATION =        1.4671D+07          PRECIPITATION =                  
           STREAMFLOW =                               STREAMFLOW =                  
     GW BOUNDARY FLOW =            169.91       GW BOUNDARY FLOW =              1.48


                                    OUT                                        OUT
                                    ---                                        ---
   EVAPOTRANSPIRATION =        8491429.68     EVAPOTRANSPIRATION =          38892.67
           STREAMFLOW =        6341226.29             STREAMFLOW =          15449.93
     GW BOUNDARY FLOW =           9412.38       GW BOUNDARY FLOW =             33.22

   INFLOWS - OUTFLOWS =        -170923.64     INFLOWS - OUTFLOWS =         -54374.33
             --------                                   --------

 TOTAL STORAGE CHANGE =        -167895.95         STORAGE CHANGE =         -54353.27
       --------------                             --------------
         LAND SURFACE =             13.79           LAND SURFACE =             -3.53
            SOIL ZONE =        2341705.69              SOIL ZONE =         -35980.15
     UNSATURATED ZONE =       -3015372.44       UNSATURATED ZONE =         -13178.79
       SATURATED ZONE =         505757.00         SATURATED ZONE =          -5190.79

 OVERALL BUDGET ERROR =          -3027.69           BUDGET ERROR =            -21.07


  PERCENT DISCREPANCY =             -0.02    PERCENT DISCREPANCY =             -0.04



1
 SUMMARY VOLUMETRIC BUDGET FOR GSFLOW 
 DATE: 06 30 1991              CUMULATIVE TIME STEP:      30
 MODFLOW STRESS PERIOD     10     CURRENT TIME STEP:     273     ITERATIONS:       5

 -----------------------------------------------------------------------------------

   CUMULATIVE VOLUMES               L**3   RATES FOR THIS TIME STEP           L**3/T
   ------------------                      ------------------------

                                     IN                                         IN
[...]
                                    ---                                        ---
   EVAPOTRANSPIRATION =        7.3660D+07     EVAPOTRANSPIRATION =          75724.66
           STREAMFLOW =        7.0755D+07             STREAMFLOW =          12060.06
     GW BOUNDARY FLOW =          51253.03       GW BOUNDARY FLOW =             25.10

   INFLOWS - OUTFLOWS =       -1.0953D+07     INFLOWS - OUTFLOWS =         -87806.62
             --------                                   --------

 TOTAL STORAGE CHANGE =       -1.1015D+07         STORAGE CHANGE =         -87961.92
       --------------                             --------------
         LAND SURFACE =         174964.05           LAND SURFACE =         -10872.67
            SOIL ZONE =        1878070.29              SOIL ZONE =         -59527.64
     UNSATURATED ZONE =          46738.54       UNSATURATED ZONE =         -12422.75
       SATURATED ZONE =       -1.3115D+07         SATURATED ZONE =          -5138.87

 OVERALL BUDGET ERROR =          62804.38           BUDGET ERROR =            155.30


  PERCENT DISCREPANCY =              0.04    PERCENT DISCREPANCY =              0.18



1
 SUMMARY VOLUMETRIC BUDGET FOR GSFLOW 
 DATE: 09 03 1995              CUMULATIVE TIME STEP:       3
 MODFLOW STRESS PERIOD     61     CURRENT TIME STEP:    1799     ITERATIONS:       7

 -----------------------------------------------------------------------------------

   CUMULATIVE VOLUMES               L**3   RATES FOR THIS TIME STEP           L**3/T
   ------------------                      ------------------------

                                     IN                                         IN
                                     --                                         --
        PRECIPITATION =        1.3351D+08          PRECIPITATION =                  
           STREAMFLOW =                               STREAMFLOW =                  
     GW BOUNDARY FLOW =           5415.43       GW BOUNDARY FLOW =              3.31


                                    OUT                                        OUT
                                    ---                                        ---
   EVAPOTRANSPIRATION =        7.4162D+07     EVAPOTRANSPIRATION =          66625.07
           STREAMFLOW =        7.0836D+07             STREAMFLOW =          11372.14
     GW BOUNDARY FLOW =          51428.47       GW BOUNDARY FLOW =             25.04

   INFLOWS - OUTFLOWS =       -1.1536D+07     INFLOWS - OUTFLOWS =         -78018.94
             --------                                   --------

 TOTAL STORAGE CHANGE =       -1.1599D+07         STORAGE CHANGE =         -78025.87
       --------------                             --------------
         LAND SURFACE =         111496.32           LAND SURFACE =          -7601.38
            SOIL ZONE =        1481931.30              SOIL ZONE =         -52597.41
     UNSATURATED ZONE =         -35086.00       UNSATURATED ZONE =         -11430.16
       SATURATED ZONE =       -1.3158D+07         SATURATED ZONE =          -6396.92

 OVERALL BUDGET ERROR =          63460.30           BUDGET ERROR =              6.93


  PERCENT DISCREPANCY =              0.04    PERCENT DISCREPANCY =              0.01



1
 SUMMARY VOLUMETRIC BUDGET FOR GSFLOW 
 DATE: 09 10 1995              CUMULATIVE TIME STEP:      10
 MODFLOW STRESS PERIOD     61     CURRENT TIME STEP:    1806     ITERATIONS:       6

 -----------------------------------------------------------------------------------

   CUMULATIVE VOLUMES               L**3   RATES FOR THIS TIME STEP           L**3/T
   ------------------                      ------------------------

                                     IN                                         IN
                                     --                                         --
        PRECIPITATION =        1.3351D+08          PRECIPITATION =                  
           STREAMFLOW =                               STREAMFLOW =                  
     GW BOUNDARY FLOW =           5439.02       GW BOUNDARY FLOW =              3.42


                                    OUT                                        OUT
                                    ---                                        ---
   EVAPOTRANSPIRATION =        7.4537D+07     EVAPOTRANSPIRATION =          50268.32
           STREAMFLOW =        7.0914D+07             STREAMFLOW =          10886.26
     GW BOUNDARY FLOW =          51603.54       GW BOUNDARY FLOW =             24.99

   INFLOWS - OUTFLOWS =       -1.1989D+07     INFLOWS - OUTFLOWS =         -61176.15
             --------                                   --------

 TOTAL STORAGE CHANGE =       -1.2052D+07         STORAGE CHANGE =         -61186.98
       --------------                             --------------
         LAND SURFACE =          73766.31           LAND SURFACE =          -4565.46
            SOIL ZONE =        1187637.49              SOIL ZONE =         -39170.06
     UNSATURATED ZONE =        -111253.28       UNSATURATED ZONE =         -10681.04
       SATURATED ZONE =       -1.3202D+07         SATURATED ZONE =          -6770.42

 OVERALL BUDGET ERROR =          63526.83           BUDGET ERROR =             10.83


  PERCENT DISCREPANCY =              0.04    PERCENT DISCREPANCY =              0.02



1
 SUMMARY VOLUMETRIC BUDGET FOR GSFLOW 
 DATE: 09 17 1995              CUMULATIVE TIME STEP:      17
 MODFLOW STRESS PERIOD     61     CURRENT TIME STEP:    1813     ITERATIONS:       7

 -----------------------------------------------------------------------------------

   CUMULATIVE VOLUMES               L**3   RATES FOR THIS TIME STEP           L**3/T
   ------------------                      ------------------------

                                     IN                                         IN
                                     --                                         --
        PRECIPITATION =        1.3351D+08          PRECIPITATION =                  
           STREAMFLOW =                               STREAMFLOW =                  
     GW BOUNDARY FLOW =           5463.34       GW BOUNDARY FLOW =              3.52


                                    OUT                                        OUT
                                    ---                                        ---
   EVAPOTRANSPIRATION =        7.4946D+07     EVAPOTRANSPIRATION =          46628.42
           STREAMFLOW =        7.0987D+07             STREAMFLOW =          10289.15
     GW BOUNDARY FLOW =          51778.23       GW BOUNDARY FLOW =             24.94

   INFLOWS - OUTFLOWS =       -1.2470D+07     INFLOWS - OUTFLOWS =         -56938.98
             --------                                   --------

 TOTAL STORAGE CHANGE =       -1.2534D+07         STORAGE CHANGE =         -56943.09
       --------------                             --------------
         LAND SURFACE =          42893.82           LAND SURFACE =          -2921.51
            SOIL ZONE =         877640.26              SOIL ZONE =         -34266.77
     UNSATURATED ZONE =        -190323.53       UNSATURATED ZONE =         -11473.09
       SATURATED ZONE =       -1.3264D+07         SATURATED ZONE =          -8281.72

 OVERALL BUDGET ERROR =          63581.57           BUDGET ERROR =              4.11


  PERCENT DISCREPANCY =              0.04    PERCENT DISCREPANCY =              0.01



1
 SUMMARY VOLUMETRIC BUDGET FOR GSFLOW 
 DATE: 09 24 1995              CUMULATIVE TIME STEP:      24
 MODFLOW STRESS PERIOD     61     CURRENT TIME STEP:    1820     ITERATIONS:       6

 -----------------------------------------------------------------------------------

   CUMULATIVE VOLUMES               L**3   RATES FOR THIS TIME STEP           L**3/T
   ------------------                      ------------------------

                                     IN                                         IN
                                     --                                         --
        PRECIPITATION =        1.3351D+08          PRECIPITATION =                  
           STREAMFLOW =                               STREAMFLOW =                  
     GW BOUNDARY FLOW =           5488.36       GW BOUNDARY FLOW =              3.61


                                    OUT                                        OUT
                                    ---                                        ---
   EVAPOTRANSPIRATION =        7.5235D+07     EVAPOTRANSPIRATION =          30089.83
           STREAMFLOW =        7.1057D+07             STREAMFLOW =          10091.72
     GW BOUNDARY FLOW =          51952.63       GW BOUNDARY FLOW =             24.90

   INFLOWS - OUTFLOWS =       -1.2830D+07     INFLOWS - OUTFLOWS =         -40202.84
             --------                                   --------

 TOTAL STORAGE CHANGE =       -1.2894D+07         STORAGE CHANGE =         -40209.56
       --------------                             --------------
         LAND SURFACE =          27188.16           LAND SURFACE =          -1533.29
            SOIL ZONE =         671634.46              SOIL ZONE =         -20816.86
     UNSATURATED ZONE =        -267527.06       UNSATURATED ZONE =         -10295.67
       SATURATED ZONE =       -1.3325D+07         SATURATED ZONE =          -7563.75

 OVERALL BUDGET ERROR =          63609.61           BUDGET ERROR =              6.72


  PERCENT DISCREPANCY =              0.04    PERCENT DISCREPANCY =              0.02



1
 SUMMARY VOLUMETRIC BUDGET FOR GSFLOW 
 DATE: 10 01 1995              CUMULATIVE TIME STEP:       1
 MODFLOW STRESS PERIOD     62     CURRENT TIME STEP:    1827     ITERATIONS:       6

 -----------------------------------------------------------------------------------

   CUMULATIVE VOLUMES               L**3   RATES FOR THIS TIME STEP           L**3/T
   ------------------                      ------------------------

                                     IN                                         IN
                                     --                                         --
        PRECIPITATION =        1.3351D+08          PRECIPITATION =                  
           STREAMFLOW =                               STREAMFLOW =                  
     GW BOUNDARY FLOW =           5514.02       GW BOUNDARY FLOW =              3.70


                                    OUT                                        OUT
                                    ---                                        ---
   EVAPOTRANSPIRATION =        7.5362D+07     EVAPOTRANSPIRATION =          18477.32
           STREAMFLOW =        7.1129D+07             STREAMFLOW =          10084.52
     GW BOUNDARY FLOW =          52126.89       GW BOUNDARY FLOW =             24.88

   INFLOWS - OUTFLOWS =       -1.3029D+07     INFLOWS - OUTFLOWS =         -28583.02
             --------                                   --------

 TOTAL STORAGE CHANGE =       -1.3092D+07         STORAGE CHANGE =         -28588.41
       --------------                             --------------
         LAND SURFACE =          21549.74           LAND SURFACE =           -680.64
            SOIL ZONE =         585028.87              SOIL ZONE =         -12583.39
     UNSATURATED ZONE =        -331166.04       UNSATURATED ZONE =          -8914.66
       SATURATED ZONE =       -1.3368D+07         SATURATED ZONE =          -6409.72

 OVERALL BUDGET ERROR =          63645.03           BUDGET ERROR =              5.39


  PERCENT DISCREPANCY =              0.04    PERCENT DISCREPANCY =              0.02



1
 SUMMARY VOLUMETRIC BUDGET FOR GSFLOW 
 DATE: 10 08 1995              CUMULATIVE TIME STEP:       8
 MODFLOW STRESS PERIOD     62     CURRENT TIME STEP:    1834     ITERATIONS:       5

 -----------------------------------------------------------------------------------

   CUMULATIVE VOLUMES               L**3   RATES FOR THIS TIME STEP           L**3/T
   ------------------                      ------------------------

                                     IN                                         IN
                                     --                                         --
        PRECIPITATION =        1.3351D+08          PRECIPITATION =                  
           STREAMFLOW =                               STREAMFLOW =                  
     GW BOUNDARY FLOW =           5540.28       GW BOUNDARY FLOW =              3.79


                                    OUT                                        OUT
                                    ---                                        ---
   EVAPOTRANSPIRATION =        7.5497D+07     EVAPOTRANSPIRATION =          17047.69
           STREAMFLOW =        7.1198D+07             STREAMFLOW =           9943.84
     GW BOUNDARY FLOW =          52300.98       GW BOUNDARY FLOW =             24.86

   INFLOWS - OUTFLOWS =       -1.3234D+07     INFLOWS - OUTFLOWS =         -27012.60
             --------                                   --------

 TOTAL STORAGE CHANGE =       -1.3298D+07         STORAGE CHANGE =         -27019.35
       --------------                             --------------
         LAND SURFACE =          17598.17           LAND SURFACE =           -617.60
            SOIL ZONE =         492775.70              SOIL ZONE =         -11309.64
     UNSATURATED ZONE =        -390780.61       UNSATURATED ZONE =          -8154.10
       SATURATED ZONE =       -1.3417D+07         SATURATED ZONE =          -6938.01

 OVERALL BUDGET ERROR =          63683.08           BUDGET ERROR =              6.75


  PERCENT DISCREPANCY =              0.04    PERCENT DISCREPANCY =              0.02



1
 SUMMARY VOLUMETRIC BUDGET FOR GSFLOW 
 DATE: 10 15 1995              CUMULATIVE TIME STEP:      15
 MODFLOW STRESS PERIOD     62     CURRENT TIME STEP:    1841     ITERATIONS:       5

 -----------------------------------------------------------------------------------

   CUMULATIVE VOLUMES               L**3   RATES FOR THIS TIME STEP           L**3/T
   ------------------                      ------------------------

                                     IN                                         IN
                                     --                                         --
        PRECIPITATION =        1.3351D+08          PRECIPITATION =                  
           STREAMFLOW =                               STREAMFLOW =                  
     GW BOUNDARY FLOW =           5567.08       GW BOUNDARY FLOW =              3.86


                                    OUT                                        OUT
                                    ---                                        ---
   EVAPOTRANSPIRATION =        7.5625D+07     EVAPOTRANSPIRATION =          19787.19
           STREAMFLOW =        7.1267D+07             STREAMFLOW =           9597.85
     GW BOUNDARY FLOW =          52474.14       GW BOUNDARY FLOW =             24.71

   INFLOWS - OUTFLOWS =       -1.3430D+07     INFLOWS - OUTFLOWS =         -29405.89
             --------                                   --------

 TOTAL STORAGE CHANGE =       -1.3494D+07         STORAGE CHANGE =         -29409.25
       --------------                             --------------
         LAND SURFACE =          13563.29           LAND SURFACE =           -673.08
            SOIL ZONE =         408490.92              SOIL ZONE =         -12906.49
     UNSATURATED ZONE =        -445041.47       UNSATURATED ZONE =          -7523.97
       SATURATED ZONE =       -1.3471D+07         SATURATED ZONE =          -8305.71

 OVERALL BUDGET ERROR =          63703.57           BUDGET ERROR =              3.36


  PERCENT DISCREPANCY =              0.04    PERCENT DISCREPANCY =              0.01



1
 SUMMARY VOLUMETRIC BUDGET FOR GSFLOW 
 DATE: 10 22 1995              CUMULATIVE TIME STEP:      22
 MODFLOW STRESS PERIOD     62     CURRENT TIME STEP:    1848     ITERATIONS:      10

 -----------------------------------------------------------------------------------

   CUMULATIVE VOLUMES               L**3   RATES FOR THIS TIME STEP           L**3/T
   ------------------                      ------------------------

                                     IN                                         IN
                                     --                                         --
        PRECIPITATION =        1.3351D+08          PRECIPITATION =                  
           STREAMFLOW =                               STREAMFLOW =                  
     GW BOUNDARY FLOW =           5594.42       GW BOUNDARY FLOW =              3.94


                                    OUT                                        OUT
                                    ---                                        ---
   EVAPOTRANSPIRATION =        7.5738D+07     EVAPOTRANSPIRATION =           5152.01
           STREAMFLOW =        7.1334D+07             STREAMFLOW =           9942.29
     GW BOUNDARY FLOW =          52646.86       GW BOUNDARY FLOW =             24.71

   INFLOWS - OUTFLOWS =       -1.3610D+07     INFLOWS - OUTFLOWS =         -15115.07
             --------                                   --------

 TOTAL STORAGE CHANGE =       -1.3674D+07         STORAGE CHANGE =         -15115.37
       --------------                             --------------
         LAND SURFACE =          10116.83           LAND SURFACE =             -7.50
            SOIL ZONE =         336501.87              SOIL ZONE =          -3044.94
     UNSATURATED ZONE =        -494814.87       UNSATURATED ZONE =          -6563.14
       SATURATED ZONE =       -1.3526D+07         SATURATED ZONE =          -5499.79

 OVERALL BUDGET ERROR =          63713.20           BUDGET ERROR =              0.30


  PERCENT DISCREPANCY =              0.04    PERCENT DISCREPANCY =              0.00



1
 SUMMARY VOLUMETRIC BUDGET FOR GSFLOW 
 DATE: 10 29 1995              CUMULATIVE TIME STEP:      29
 MODFLOW STRESS PERIOD     62     CURRENT TIME STEP:    1855     ITERATIONS:       5

 -----------------------------------------------------------------------------------

   CUMULATIVE VOLUMES               L**3   RATES FOR THIS TIME STEP           L**3/T
   ------------------                      ------------------------

                                     IN                                         IN
                                     --                                         --
        PRECIPITATION =        1.3351D+08          PRECIPITATION =                  
           STREAMFLOW =                               STREAMFLOW =                  
     GW BOUNDARY FLOW =           5622.36       GW BOUNDARY FLOW =              4.03


                                    OUT                                        OUT
                                    ---                                        ---
   EVAPOTRANSPIRATION =        7.5809D+07     EVAPOTRANSPIRATION =          12311.87
           STREAMFLOW =        7.1401D+07             STREAMFLOW =           9514.05
     GW BOUNDARY FLOW =          52819.72       GW BOUNDARY FLOW =             24.65

   INFLOWS - OUTFLOWS =       -1.3749D+07     INFLOWS - OUTFLOWS =         -21846.54
             --------                                   --------

 TOTAL STORAGE CHANGE =       -1.3813D+07         STORAGE CHANGE =         -21848.67
       --------------                             --------------
         LAND SURFACE =           8965.16           LAND SURFACE =           -342.48
            SOIL ZONE =         293466.42              SOIL ZONE =          -7265.20
     UNSATURATED ZONE =        -541728.82       UNSATURATED ZONE =          -6657.06
       SATURATED ZONE =       -1.3574D+07         SATURATED ZONE =          -7583.93

 OVERALL BUDGET ERROR =          63722.07           BUDGET ERROR =              2.13


  PERCENT DISCREPANCY =              0.04    PERCENT DISCREPANCY =              0.01



