1
 SUMMARY VOLUMETRIC BUDGET FOR GSFLOW 
 DATE: 10 07 1990              CUMULATIVE TIME STEP:       7
 MODFLOW STRESS PERIOD      2     CURRENT TIME STEP:       7     ITERATIONS:       7

 -----------------------------------------------------------------------------------

   CUMULATIVE VOLUMES               L**3   RATES FOR THIS TIME STEP           L**3/T
   ------------------                      ------------------------

                                     IN                                         IN
                                     --                                         --
        PRECIPITATION =                            PRECIPITATION =                  
           STREAMFLOW =                               STREAMFLOW =                  
     GW BOUNDARY FLOW =                         GW BOUNDARY FLOW =                  


                                    OUT                                        OUT
                                    ---                                        ---
   EVAPOTRANSPIRATION =         381240.73     EVAPOTRANSPIRATION =          12556.50
           STREAMFLOW =          46393.25             STREAMFLOW =           8180.01
     GW BOUNDARY FLOW =            252.80       GW BOUNDARY FLOW =             36.30

   INFLOWS - OUTFLOWS =        -427886.79     INFLOWS - OUTFLOWS =         -20772.81
             --------                                   --------

 TOTAL STORAGE CHANGE =        -426436.49         STORAGE CHANGE =         -20747.17
       --------------                             --------------
         LAND SURFACE =                             LAND SURFACE =                  
            SOIL ZONE =         -33349.70              SOIL ZONE =          -1007.52
     UNSATURATED ZONE =        -499621.75       UNSATURATED ZONE =         -34030.87
       SATURATED ZONE =         106534.96         SATURATED ZONE =          14291.21

 OVERALL BUDGET ERROR =          -1450.30           BUDGET ERROR =            -25.63


  PERCENT DISCREPANCY =             -0.34    PERCENT DISCREPANCY =             -0.12



1
 SUMMARY VOLUMETRIC BUDGET FOR GSFLOW 
 DATE: 10 14 1990              CUMULATIVE TIME STEP:      14
 MODFLOW STRESS PERIOD      2     CURRENT TIME STEP:      14     ITERATIONS:       6

 -----------------------------------------------------------------------------------

   CUMULATIVE VOLUMES               L**3   RATES FOR THIS TIME STEP           L**3/T
   ------------------                      ------------------------

                                     IN                                         IN
                                     --                                         --
        PRECIPITATION =                            PRECIPITATION =                  
           STREAMFLOW =                               STREAMFLOW =                  
     GW BOUNDARY FLOW =                         GW BOUNDARY FLOW =                  


                                    OUT                                        OUT
                                    ---                                        ---
   EVAPOTRANSPIRATION =         659585.91     EVAPOTRANSPIRATION =          42741.32
           STREAMFLOW =         101688.44             STREAMFLOW =           7485.50
     GW BOUNDARY FLOW =            506.66       GW BOUNDARY FLOW =             36.24

   INFLOWS - OUTFLOWS =        -761781.01     INFLOWS - OUTFLOWS =         -50263.06
             --------                                   --------

 TOTAL STORAGE CHANGE =        -760060.28         STORAGE CHANGE =         -50242.52
       --------------                             --------------
         LAND SURFACE =                             LAND SURFACE =                  
            SOIL ZONE =         -58172.57              SOIL ZONE =          -4433.68
     UNSATURATED ZONE =        -873552.35       UNSATURATED ZONE =         -52591.14
       SATURATED ZONE =         171664.64         SATURATED ZONE =           6782.30

 OVERALL BUDGET ERROR =          -1720.72           BUDGET ERROR =            -20.55


  PERCENT DISCREPANCY =             -0.23    PERCENT DISCREPANCY =             -0.04



1
 SUMMARY VOLUMETRIC BUDGET FOR GSFLOW 
 DATE: 10 21 1990              CUMULATIVE TIME STEP:      21
 MODFLOW STRESS PERIOD      2     CURRENT TIME STEP:      21     ITERATIONS:       6

 -----------------------------------------------------------------------------------

   CUMULATIVE VOLUMES               L**3   RATES FOR THIS TIME STEP           L**3/T
   ------------------                      ------------------------

                                     IN                                         IN
                                     --                                         --
        PRECIPITATION =         188432.87          PRECIPITATION =                  
           STREAMFLOW =                               STREAMFLOW =                  
     GW BOUNDARY FLOW =                         GW BOUNDARY FLOW =                  


                                    OUT                                        OUT
                                    ---                                        ---
   EVAPOTRANSPIRATION =         801519.37     EVAPOTRANSPIRATION =          36669.06
           STREAMFLOW =         165017.30             STREAMFLOW =          10152.54
     GW BOUNDARY FLOW =            760.86       GW BOUNDARY FLOW =             36.37

   INFLOWS - OUTFLOWS =        -778864.65     INFLOWS - OUTFLOWS =         -46857.98
             --------                                   --------

 TOTAL STORAGE CHANGE =        -777899.67         STORAGE CHANGE =         -46720.87
       --------------                             --------------
         LAND SURFACE =          15977.62           LAND SURFACE =         -34861.64
            SOIL ZONE =          56553.77              SOIL ZONE =           -420.57
     UNSATURATED ZONE =       -1085760.80       UNSATURATED ZONE =         -22054.48
       SATURATED ZONE =         235329.73         SATURATED ZONE =          10615.82

 OVERALL BUDGET ERROR =           -964.99           BUDGET ERROR =           -137.11


  PERCENT DISCREPANCY =             -0.10    PERCENT DISCREPANCY =             -0.29



1
 SUMMARY VOLUMETRIC BUDGET FOR GSFLOW 
 DATE: 10 28 1990              CUMULATIVE TIME STEP:      28
 MODFLOW STRESS PERIOD      2     CURRENT TIME STEP:      28     ITERATIONS:       7

 -----------------------------------------------------------------------------------

   CUMULATIVE VOLUMES               L**3   RATES FOR THIS TIME STEP           L**3/T
   ------------------                      ------------------------

                                     IN                                         IN
                                     --                                         --
        PRECIPITATION =         188432.87          PRECIPITATION =                  
           STREAMFLOW =                               STREAMFLOW =                  
     GW BOUNDARY FLOW =                         GW BOUNDARY FLOW =                  


                                    OUT                                        OUT
                                    ---                                        ---
   EVAPOTRANSPIRATION =         926654.63     EVAPOTRANSPIRATION =          11160.54
           STREAMFLOW =         226859.95             STREAMFLOW =           9027.17
     GW BOUNDARY FLOW =           1014.05       GW BOUNDARY FLOW =             36.13

   INFLOWS - OUTFLOWS =        -966095.77     INFLOWS - OUTFLOWS =         -20223.83
             --------                                   --------

 TOTAL STORAGE CHANGE =        -964580.52         STORAGE CHANGE =         -20216.58
       --------------                             --------------
         LAND SURFACE =                             LAND SURFACE =                  
            SOIL ZONE =          28371.34              SOIL ZONE =          -3301.17
     UNSATURATED ZONE =       -1270300.83       UNSATURATED ZONE =         -23153.54
       SATURATED ZONE =         277348.97         SATURATED ZONE =           6238.12

 OVERALL BUDGET ERROR =          -1515.24           BUDGET ERROR =             -7.25


  PERCENT DISCREPANCY =             -0.13    PERCENT DISCREPANCY =             -0.04



1
 SUMMARY VOLUMETRIC BUDGET FOR GSFLOW 
 DATE: 11 04 1990              CUMULATIVE TIME STEP:       4
 MODFLOW STRESS PERIOD      3     CURRENT TIME STEP:      35     ITERATIONS:       6

 -----------------------------------------------------------------------------------

   CUMULATIVE VOLUMES               L**3   RATES FOR THIS TIME STEP           L**3/T
   ------------------                      ------------------------

                                     IN                                         IN
                                     --                                         --
        PRECIPITATION =         703113.06          PRECIPITATION =                  
           STREAMFLOW =                               STREAMFLOW =                  
     GW BOUNDARY FLOW =                         GW BOUNDARY FLOW =                  


                                    OUT                                        OUT
                                    ---                                        ---
   EVAPOTRANSPIRATION =         985824.44     EVAPOTRANSPIRATION =          25590.30
           STREAMFLOW =         297567.04             STREAMFLOW =          10541.37
     GW BOUNDARY FLOW =           1267.10       GW BOUNDARY FLOW =             36.13

   INFLOWS - OUTFLOWS =        -581545.51     INFLOWS - OUTFLOWS =         -36167.80
             --------                                   --------

 TOTAL STORAGE CHANGE =        -583738.41         STORAGE CHANGE =         -37075.60
       --------------                             --------------
         LAND SURFACE =          71009.70           LAND SURFACE =         -84159.07
            SOIL ZONE =         423449.16              SOIL ZONE =          57904.28
     UNSATURATED ZONE =       -1416102.04       UNSATURATED ZONE =         -20118.99
       SATURATED ZONE =         337904.78         SATURATED ZONE =           9298.18

 OVERALL BUDGET ERROR =           2192.90           BUDGET ERROR =            907.80


  PERCENT DISCREPANCY =              0.17    PERCENT DISCREPANCY =              2.48



1
 SUMMARY VOLUMETRIC BUDGET FOR GSFLOW 
 DATE: 11 11 1990              CUMULATIVE TIME STEP:      11
 MODFLOW STRESS PERIOD      3     CURRENT TIME STEP:      42     ITERATIONS:       6

 -----------------------------------------------------------------------------------

   CUMULATIVE VOLUMES               L**3   RATES FOR THIS TIME STEP           L**3/T
   ------------------                      ------------------------

                                     IN                                         IN
                                     --                                         --
        PRECIPITATION =         703113.06          PRECIPITATION =                  
           STREAMFLOW =                               STREAMFLOW =                  
     GW BOUNDARY FLOW =                         GW BOUNDARY FLOW =                  


                                    OUT                                        OUT
                                    ---                                        ---
   EVAPOTRANSPIRATION =        1058918.12     EVAPOTRANSPIRATION =          12491.68
           STREAMFLOW =         368509.21             STREAMFLOW =           9674.25
     GW BOUNDARY FLOW =           1519.20       GW BOUNDARY FLOW =             35.93

   INFLOWS - OUTFLOWS =        -725833.47     INFLOWS - OUTFLOWS =         -22201.86
             --------                                   --------

 TOTAL STORAGE CHANGE =        -727788.94         STORAGE CHANGE =         -22155.31
       --------------                             --------------
         LAND SURFACE =            295.92           LAND SURFACE =           -859.89
            SOIL ZONE =         440792.57              SOIL ZONE =          -6267.15
     UNSATURATED ZONE =       -1556287.33       UNSATURATED ZONE =         -20005.70
       SATURATED ZONE =         387409.90         SATURATED ZONE =           4977.44

 OVERALL BUDGET ERROR =           1955.47           BUDGET ERROR =            -46.55


  PERCENT DISCREPANCY =              0.14    PERCENT DISCREPANCY =             -0.21



1
 SUMMARY VOLUMETRIC BUDGET FOR GSFLOW 
 DATE: 11 18 1990              CUMULATIVE TIME STEP:      18
 MODFLOW STRESS PERIOD      3     CURRENT TIME STEP:      49     ITERATIONS:       6

 -----------------------------------------------------------------------------------

   CUMULATIVE VOLUMES               L**3   RATES FOR THIS TIME STEP           L**3/T
   ------------------                      ------------------------

                                     IN                                         IN
                                     --                                         --
        PRECIPITATION =         747883.35          PRECIPITATION =                  
           STREAMFLOW =                               STREAMFLOW =                  
     GW BOUNDARY FLOW =                         GW BOUNDARY FLOW =                  


                                    OUT                                        OUT
                                    ---                                        ---
   EVAPOTRANSPIRATION =        1127846.09     EVAPOTRANSPIRATION =           5386.19
           STREAMFLOW =         440304.74             STREAMFLOW =          10678.55
     GW BOUNDARY FLOW =           1770.52       GW BOUNDARY FLOW =             35.88

   INFLOWS - OUTFLOWS =        -822037.99     INFLOWS - OUTFLOWS =         -16100.62
             --------                                   --------

 TOTAL STORAGE CHANGE =        -823807.84         STORAGE CHANGE =         -16079.53
       --------------                             --------------
         LAND SURFACE =          10077.61           LAND SURFACE =          -4199.79
            SOIL ZONE =         423933.29              SOIL ZONE =           -540.31
     UNSATURATED ZONE =       -1690070.90       UNSATURATED ZONE =         -18678.34
       SATURATED ZONE =         432252.17         SATURATED ZONE =           7338.91

 OVERALL BUDGET ERROR =           1769.85           BUDGET ERROR =            -21.09


  PERCENT DISCREPANCY =              0.11    PERCENT DISCREPANCY =             -0.13



1
 SUMMARY VOLUMETRIC BUDGET FOR GSFLOW 
 DATE: 11 25 1990              CUMULATIVE TIME STEP:      25
 MODFLOW STRESS PERIOD      3     CURRENT TIME STEP:      56     ITERATIONS:       6

 -----------------------------------------------------------------------------------

   CUMULATIVE VOLUMES               L**3   RATES FOR THIS TIME STEP           L**3/T
   ------------------                      ------------------------

                                     IN                                         IN
                                     --                                         --
        PRECIPITATION =        1009043.38          PRECIPITATION =         186542.88
           STREAMFLOW =                               STREAMFLOW =                  
     GW BOUNDARY FLOW =                         GW BOUNDARY FLOW =                  


                                    OUT                                        OUT
                                    ---                                        ---
   EVAPOTRANSPIRATION =        1187869.00     EVAPOTRANSPIRATION =           3806.63
           STREAMFLOW =         516146.22             STREAMFLOW =          10760.99
     GW BOUNDARY FLOW =           2021.46       GW BOUNDARY FLOW =             35.79

   INFLOWS - OUTFLOWS =        -696993.29     INFLOWS - OUTFLOWS =         171939.46
             --------                                   --------

 TOTAL STORAGE CHANGE =        -700397.28         STORAGE CHANGE =         170375.44
       --------------                             --------------
         LAND SURFACE =          92124.67           LAND SURFACE =          75233.82
            SOIL ZONE =         543866.46              SOIL ZONE =         106798.79
     UNSATURATED ZONE =       -1818096.06       UNSATURATED ZONE =         -17981.17
       SATURATED ZONE =         481707.65         SATURATED ZONE =           6324.00

 OVERALL BUDGET ERROR =           3403.98           BUDGET ERROR =           1564.02


  PERCENT DISCREPANCY =              0.20    PERCENT DISCREPANCY =              0.84



1
 SUMMARY VOLUMETRIC BUDGET FOR GSFLOW 
 DATE: 12 02 1990              CUMULATIVE TIME STEP:       2
 MODFLOW STRESS PERIOD      4     CURRENT TIME STEP:      63     ITERATIONS:       6

 -----------------------------------------------------------------------------------

   CUMULATIVE VOLUMES               L**3   RATES FOR THIS TIME STEP           L**3/T
   ------------------                      ------------------------

                                     IN                                         IN
                                     --                                         --
        PRECIPITATION =        1449284.55          PRECIPITATION =                  
           STREAMFLOW =                               STREAMFLOW =                  
     GW BOUNDARY FLOW =                         GW BOUNDARY FLOW =                  


                                    OUT                                        OUT
                                    ---                                        ---
   EVAPOTRANSPIRATION =        1195465.03     EVAPOTRANSPIRATION =            376.67
           STREAMFLOW =         593209.22             STREAMFLOW =          11053.25
     GW BOUNDARY FLOW =           2271.93       GW BOUNDARY FLOW =             35.77

   INFLOWS - OUTFLOWS =        -341661.63     INFLOWS - OUTFLOWS =         -11465.69
             --------                                   --------

 TOTAL STORAGE CHANGE =        -345877.69         STORAGE CHANGE =         -11474.41
       --------------                             --------------
         LAND SURFACE =         493448.43           LAND SURFACE =           -453.37
            SOIL ZONE =         575302.05              SOIL ZONE =            200.34
     UNSATURATED ZONE =       -1941322.61       UNSATURATED ZONE =         -17308.60
       SATURATED ZONE =         526694.44         SATURATED ZONE =           6087.21

 OVERALL BUDGET ERROR =           4216.06           BUDGET ERROR =              8.72


  PERCENT DISCREPANCY =              0.24    PERCENT DISCREPANCY =              0.08



1
 SUMMARY VOLUMETRIC BUDGET FOR GSFLOW 
 DATE: 12 09 1990              CUMULATIVE TIME STEP:       9
 MODFLOW STRESS PERIOD      4     CURRENT TIME STEP:      70     ITERATIONS:       6

 -----------------------------------------------------------------------------------

   CUMULATIVE VOLUMES               L**3   RATES FOR THIS TIME STEP           L**3/T
   ------------------                      ------------------------

                                     IN                                         IN
                                     --                                         --
        PRECIPITATION =        1449284.55          PRECIPITATION =                  
           STREAMFLOW =                               STREAMFLOW =                  
     GW BOUNDARY FLOW =                         GW BOUNDARY FLOW =                  


                                    OUT                                        OUT
                                    ---                                        ---
   EVAPOTRANSPIRATION =        1272721.83     EVAPOTRANSPIRATION =          13679.88
           STREAMFLOW =         670105.37             STREAMFLOW =          10710.51
     GW BOUNDARY FLOW =           2521.87       GW BOUNDARY FLOW =             35.64

   INFLOWS - OUTFLOWS =        -496064.51     INFLOWS - OUTFLOWS =         -24426.04
             --------                                   --------

 TOTAL STORAGE CHANGE =        -503450.45         STORAGE CHANGE =         -24459.47
       --------------                             --------------
         LAND SURFACE =          66382.66           LAND SURFACE =         -46525.53
            SOIL ZONE =         926886.43              SOIL ZONE =          34811.61
     UNSATURATED ZONE =       -2059496.92       UNSATURATED ZONE =         -16533.22
       SATURATED ZONE =         562777.38         SATURATED ZONE =           3787.66

 OVERALL BUDGET ERROR =           7385.94           BUDGET ERROR =             33.44


  PERCENT DISCREPANCY =              0.38    PERCENT DISCREPANCY =              0.14



1
 SUMMARY VOLUMETRIC BUDGET FOR GSFLOW 
 DATE: 12 16 1990              CUMULATIVE TIME STEP:      16
 MODFLOW STRESS PERIOD      4     CURRENT TIME STEP:      77     ITERATIONS:       6

 -----------------------------------------------------------------------------------

   CUMULATIVE VOLUMES               L**3   RATES FOR THIS TIME STEP           L**3/T
   ------------------                      ------------------------

                                     IN                                         IN
                                     --                                         --
        PRECIPITATION =        1804962.84          PRECIPITATION =                  
           STREAMFLOW =                               STREAMFLOW =                  
     GW BOUNDARY FLOW =                         GW BOUNDARY FLOW =                  


                                    OUT                                        OUT
                                    ---                                        ---
   EVAPOTRANSPIRATION =        1301104.96     EVAPOTRANSPIRATION =                  
           STREAMFLOW =         748616.85             STREAMFLOW =          11410.98
     GW BOUNDARY FLOW =           2771.25       GW BOUNDARY FLOW =             35.61

   INFLOWS - OUTFLOWS =        -247530.23     INFLOWS - OUTFLOWS =         -11446.59
             --------                                   --------

 TOTAL STORAGE CHANGE =        -256690.44         STORAGE CHANGE =         -11459.57
       --------------                             --------------
         LAND SURFACE =         256077.36           LAND SURFACE =                  
            SOIL ZONE =        1067010.05              SOIL ZONE =            137.18
     UNSATURATED ZONE =       -2173185.31       UNSATURATED ZONE =         -15987.44
       SATURATED ZONE =         593407.47         SATURATED ZONE =           4390.69

 OVERALL BUDGET ERROR =           9160.21           BUDGET ERROR =             12.98


  PERCENT DISCREPANCY =              0.45    PERCENT DISCREPANCY =              0.11



1
 SUMMARY VOLUMETRIC BUDGET FOR GSFLOW 
 DATE: 12 23 1990              CUMULATIVE TIME STEP:      23
 MODFLOW STRESS PERIOD      4     CURRENT TIME STEP:      84     ITERATIONS:       6

 -----------------------------------------------------------------------------------

   CUMULATIVE VOLUMES               L**3   RATES FOR THIS TIME STEP           L**3/T
   ------------------                      ------------------------

                                     IN                                         IN
                                     --                                         --
        PRECIPITATION =        2276236.55          PRECIPITATION =                  
           STREAMFLOW =                               STREAMFLOW =                  
     GW BOUNDARY FLOW =              0.08       GW BOUNDARY FLOW =              0.04


                                    OUT                                        OUT
                                    ---                                        ---
   EVAPOTRANSPIRATION =        1302485.80     EVAPOTRANSPIRATION =                  
           STREAMFLOW =         828917.59             STREAMFLOW =          11513.29
     GW BOUNDARY FLOW =           3020.26       GW BOUNDARY FLOW =             35.57

   INFLOWS - OUTFLOWS =         141812.97     INFLOWS - OUTFLOWS =         -11548.82
             --------                                   --------

 TOTAL STORAGE CHANGE =         132573.62         STORAGE CHANGE =         -11560.29
       --------------                             --------------
         LAND SURFACE =         725980.66           LAND SURFACE =                  
            SOIL ZONE =        1068019.96              SOIL ZONE =            148.71
     UNSATURATED ZONE =       -2282632.49       UNSATURATED ZONE =         -15388.46
       SATURATED ZONE =         621205.49         SATURATED ZONE =           3679.46

 OVERALL BUDGET ERROR =           9239.36           BUDGET ERROR =             11.47


  PERCENT DISCREPANCY =              0.41    PERCENT DISCREPANCY =              0.10



1
 SUMMARY VOLUMETRIC BUDGET FOR GSFLOW 
 DATE: 12 30 1990              CUMULATIVE TIME STEP:      30
 MODFLOW STRESS PERIOD      4     CURRENT TIME STEP:      91     ITERATIONS:       5

 -----------------------------------------------------------------------------------

   CUMULATIVE VOLUMES               L**3   RATES FOR THIS TIME STEP           L**3/T
   ------------------                      ------------------------

                                     IN                                         IN
                                     --                                         --
        PRECIPITATION =        2276236.55          PRECIPITATION =                  
           STREAMFLOW =                               STREAMFLOW =                  
     GW BOUNDARY FLOW =              0.77       GW BOUNDARY FLOW =              0.14


                                    OUT                                        OUT
                                    ---                                        ---
   EVAPOTRANSPIRATION =        1303242.49     EVAPOTRANSPIRATION =                  
           STREAMFLOW =         909872.71             STREAMFLOW =          11603.50
     GW BOUNDARY FLOW =           3269.36       GW BOUNDARY FLOW =             35.60

   INFLOWS - OUTFLOWS =          59852.76     INFLOWS - OUTFLOWS =         -11638.95
             --------                                   --------

 TOTAL STORAGE CHANGE =          50549.53         STORAGE CHANGE =         -11647.33
       --------------                             --------------
         LAND SURFACE =         725228.17           LAND SURFACE =                  
            SOIL ZONE =        1069103.00              SOIL ZONE =            159.68
     UNSATURATED ZONE =       -2388193.10       UNSATURATED ZONE =         -14848.74
       SATURATED ZONE =         644411.47         SATURATED ZONE =           3041.73

 OVERALL BUDGET ERROR =           9303.22           BUDGET ERROR =              8.37


  PERCENT DISCREPANCY =              0.41    PERCENT DISCREPANCY =              0.07



1
 SUMMARY VOLUMETRIC BUDGET FOR GSFLOW 
 DATE: 01 06 1991              CUMULATIVE TIME STEP:       6
 MODFLOW STRESS PERIOD      5     CURRENT TIME STEP:      98     ITERATIONS:       5

 -----------------------------------------------------------------------------------

   CUMULATIVE VOLUMES               L**3   RATES FOR THIS TIME STEP           L**3/T
   ------------------                      ------------------------

                                     IN                                         IN
                                     --                                         --
        PRECIPITATION =        2276236.55          PRECIPITATION =                  
           STREAMFLOW =                               STREAMFLOW =                  
     GW BOUNDARY FLOW =              2.10       GW BOUNDARY FLOW =              0.22


                                    OUT                                        OUT
                                    ---                                        ---
   EVAPOTRANSPIRATION =        1326612.86     EVAPOTRANSPIRATION =           2594.25
           STREAMFLOW =         991436.70             STREAMFLOW =          11684.32
     GW BOUNDARY FLOW =           3519.22       GW BOUNDARY FLOW =             35.75

   INFLOWS - OUTFLOWS =         -45330.14     INFLOWS - OUTFLOWS =         -14314.09
             --------                                   --------

 TOTAL STORAGE CHANGE =         -56273.07         STORAGE CHANGE =         -14405.48
       --------------                             --------------
         LAND SURFACE =         620283.30           LAND SURFACE =          -6112.33
            SOIL ZONE =        1150278.56              SOIL ZONE =           3605.13
     UNSATURATED ZONE =       -2489815.63       UNSATURATED ZONE =         -14279.74
       SATURATED ZONE =         662980.70         SATURATED ZONE =           2381.47

 OVERALL BUDGET ERROR =          10942.94           BUDGET ERROR =             91.39


  PERCENT DISCREPANCY =              0.47    PERCENT DISCREPANCY =              0.64



1
 SUMMARY VOLUMETRIC BUDGET FOR GSFLOW 
 DATE: 01 13 1991              CUMULATIVE TIME STEP:      13
 MODFLOW STRESS PERIOD      5     CURRENT TIME STEP:     105     ITERATIONS:       6

 -----------------------------------------------------------------------------------

   CUMULATIVE VOLUMES               L**3   RATES FOR THIS TIME STEP           L**3/T
   ------------------                      ------------------------

                                     IN                                         IN
                                     --                                         --
        PRECIPITATION =        2596386.94          PRECIPITATION =          10327.43
           STREAMFLOW =                               STREAMFLOW =                  
     GW BOUNDARY FLOW =              4.02       GW BOUNDARY FLOW =              0.31


                                    OUT                                        OUT
                                    ---                                        ---
   EVAPOTRANSPIRATION =        1386559.74     EVAPOTRANSPIRATION =          16634.31
           STREAMFLOW =        1073140.89             STREAMFLOW =          11529.91
     GW BOUNDARY FLOW =           3769.43       GW BOUNDARY FLOW =             35.72

   INFLOWS - OUTFLOWS =         132920.91     INFLOWS - OUTFLOWS =         -17872.20
             --------                                   --------

 TOTAL STORAGE CHANGE =         118589.47         STORAGE CHANGE =         -18786.92
       --------------                             --------------
         LAND SURFACE =         586364.86           LAND SURFACE =        -135127.18
            SOIL ZONE =        1443780.05              SOIL ZONE =         129122.34
     UNSATURATED ZONE =       -2587395.73       UNSATURATED ZONE =         -13745.83
       SATURATED ZONE =         675840.29         SATURATED ZONE =            963.75

 OVERALL BUDGET ERROR =          14331.44           BUDGET ERROR =            914.72

  ***WARNING, FLUX RATES OFF > 3%

  PERCENT DISCREPANCY =              0.55    PERCENT DISCREPANCY =              3.19



1
 SUMMARY VOLUMETRIC BUDGET FOR GSFLOW 
 DATE: 01 20 1991              CUMULATIVE TIME STEP:      20
 MODFLOW STRESS PERIOD      5     CURRENT TIME STEP:     112     ITERATIONS:       5

 -----------------------------------------------------------------------------------

   CUMULATIVE VOLUMES               L**3   RATES FOR THIS TIME STEP           L**3/T
   ------------------                      ------------------------

                                     IN                                         IN
                                     --                                         --
        PRECIPITATION =        2596386.94          PRECIPITATION =                  
           STREAMFLOW =                               STREAMFLOW =                  
     GW BOUNDARY FLOW =              6.55       GW BOUNDARY FLOW =              0.40


                                    OUT                                        OUT
                                    ---                                        ---
   EVAPOTRANSPIRATION =        1455086.28     EVAPOTRANSPIRATION =           1820.97
           STREAMFLOW =        1155323.10             STREAMFLOW =          11786.34
     GW BOUNDARY FLOW =           4019.65       GW BOUNDARY FLOW =             35.75

   INFLOWS - OUTFLOWS =         -18035.53     INFLOWS - OUTFLOWS =         -13642.66
             --------                                   --------

 TOTAL STORAGE CHANGE =         -32040.31         STORAGE CHANGE =         -13639.79
       --------------                             --------------
         LAND SURFACE =         422210.59           LAND SURFACE =           -295.67
            SOIL ZONE =        1542172.59              SOIL ZONE =          -1299.10
     UNSATURATED ZONE =       -2681060.35       UNSATURATED ZONE =         -13155.20
       SATURATED ZONE =         684636.87         SATURATED ZONE =           1110.18

 OVERALL BUDGET ERROR =          14004.77           BUDGET ERROR =             -2.86


  PERCENT DISCREPANCY =              0.53    PERCENT DISCREPANCY =             -0.02



1
 SUMMARY VOLUMETRIC BUDGET FOR GSFLOW 
 DATE: 01 27 1991              CUMULATIVE TIME STEP:      27
 MODFLOW STRESS PERIOD      5     CURRENT TIME STEP:     119     ITERATIONS:       5

 -----------------------------------------------------------------------------------

   CUMULATIVE VOLUMES               L**3   RATES FOR THIS TIME STEP           L**3/T
   ------------------                      ------------------------

                                     IN                                         IN
                                     --                                         --
        PRECIPITATION =        2596386.94          PRECIPITATION =                  
           STREAMFLOW =                               STREAMFLOW =                  
     GW BOUNDARY FLOW =              9.66       GW BOUNDARY FLOW =              0.48


                                    OUT                                        OUT
                                    ---                                        ---
   EVAPOTRANSPIRATION =        1476104.50     EVAPOTRANSPIRATION =           1215.50
           STREAMFLOW =        1238007.24             STREAMFLOW =          11847.48
     GW BOUNDARY FLOW =           4269.84       GW BOUNDARY FLOW =             35.74

   INFLOWS - OUTFLOWS =        -121984.98     INFLOWS - OUTFLOWS =         -13098.24
             --------                                   --------

 TOTAL STORAGE CHANGE =        -135680.46         STORAGE CHANGE =         -13098.24
       --------------                             --------------
         LAND SURFACE =         394226.40           LAND SURFACE =           -109.80
            SOIL ZONE =        1551378.25              SOIL ZONE =           -910.83
     UNSATURATED ZONE =       -2771189.00       UNSATURATED ZONE =         -12656.02
       SATURATED ZONE =         689903.89         SATURATED ZONE =            578.41

 OVERALL BUDGET ERROR =          13695.49           BUDGET ERROR =       -3.7044D-04


  PERCENT DISCREPANCY =              0.50    PERCENT DISCREPANCY =             -0.00



1
 SUMMARY VOLUMETRIC BUDGET FOR GSFLOW 
 DATE: 02 03 1991              CUMULATIVE TIME STEP:       3
 MODFLOW STRESS PERIOD      6     CURRENT TIME STEP:     126     ITERATIONS:       6

 -----------------------------------------------------------------------------------

   CUMULATIVE VOLUMES               L**3   RATES FOR THIS TIME STEP           L**3/T
   ------------------                      ------------------------

                                     IN                                         IN
                                     --                                         --
        PRECIPITATION =        3228422.31          PRECIPITATION =          30459.53
           STREAMFLOW =                               STREAMFLOW =                  
     GW BOUNDARY FLOW =             13.32       GW BOUNDARY FLOW =              0.55


                                    OUT                                        OUT
                                    ---                                        ---
   EVAPOTRANSPIRATION =        1574471.31     EVAPOTRANSPIRATION =          19990.33
           STREAMFLOW =        1320896.09             STREAMFLOW =          11873.49
     GW BOUNDARY FLOW =           4519.96       GW BOUNDARY FLOW =             35.73

   INFLOWS - OUTFLOWS =         328548.27     INFLOWS - OUTFLOWS =          -1439.45
             --------                                   --------

 TOTAL STORAGE CHANGE =         309964.50         STORAGE CHANGE =          -1671.34
       --------------                             --------------
         LAND SURFACE =         184727.70           LAND SURFACE =         -28670.24
            SOIL ZONE =        2293737.35              SOIL ZONE =          39453.86
     UNSATURATED ZONE =       -2858199.69       UNSATURATED ZONE =         -12240.99
       SATURATED ZONE =         689699.14         SATURATED ZONE =           -213.97

 OVERALL BUDGET ERROR =          18583.76           BUDGET ERROR =            231.89


  PERCENT DISCREPANCY =              0.58    PERCENT DISCREPANCY =              0.72



1
 SUMMARY VOLUMETRIC BUDGET FOR GSFLOW 
 DATE: 02 10 1991              CUMULATIVE TIME STEP:      10
 MODFLOW STRESS PERIOD      6     CURRENT TIME STEP:     133     ITERATIONS:      10

 -----------------------------------------------------------------------------------

   CUMULATIVE VOLUMES               L**3   RATES FOR THIS TIME STEP           L**3/T
   ------------------                      ------------------------

                                     IN                                         IN
                                     --                                         --
        PRECIPITATION =        3510173.01          PRECIPITATION =                  
           STREAMFLOW =                               STREAMFLOW =                  
     GW BOUNDARY FLOW =             17.49       GW BOUNDARY FLOW =              0.63


                                    OUT                                        OUT
                                    ---                                        ---
   EVAPOTRANSPIRATION =        1740384.65     EVAPOTRANSPIRATION =          25332.06
           STREAMFLOW =        1403629.18             STREAMFLOW =          11228.77
     GW BOUNDARY FLOW =           4769.95       GW BOUNDARY FLOW =             35.70

   INFLOWS - OUTFLOWS =         361406.73     INFLOWS - OUTFLOWS =         -36595.90
             --------                                   --------

 TOTAL STORAGE CHANGE =         341488.12         STORAGE CHANGE =         -36552.03
       --------------                             --------------
         LAND SURFACE =          90050.80           LAND SURFACE =         -12330.62
            SOIL ZONE =        2505306.89              SOIL ZONE =         -12502.27
     UNSATURATED ZONE =       -2941589.97       UNSATURATED ZONE =         -11789.45
       SATURATED ZONE =         687720.39         SATURATED ZONE =             70.30

 OVERALL BUDGET ERROR =          19918.61           BUDGET ERROR =            -43.87


  PERCENT DISCREPANCY =              0.57    PERCENT DISCREPANCY =             -0.12



1
 SUMMARY VOLUMETRIC BUDGET FOR GSFLOW 
 DATE: 02 17 1991              CUMULATIVE TIME STEP:      17
 MODFLOW STRESS PERIOD      6     CURRENT TIME STEP:     140     ITERATIONS:       5

 -----------------------------------------------------------------------------------

   CUMULATIVE VOLUMES               L**3   RATES FOR THIS TIME STEP           L**3/T
   ------------------                      ------------------------

                                     IN                                         IN
                                     --                                         --
        PRECIPITATION =        3510173.01          PRECIPITATION =                  
           STREAMFLOW =                               STREAMFLOW =                  
     GW BOUNDARY FLOW =             22.17       GW BOUNDARY FLOW =              0.70


                                    OUT                                        OUT
                                    ---                                        ---
   EVAPOTRANSPIRATION =        1980537.87     EVAPOTRANSPIRATION =          23078.54
           STREAMFLOW =        1486506.91             STREAMFLOW =          11918.70
     GW BOUNDARY FLOW =           5019.83       GW BOUNDARY FLOW =             35.67

   INFLOWS - OUTFLOWS =          38130.57     INFLOWS - OUTFLOWS =         -35032.22
             --------                                   --------

 TOTAL STORAGE CHANGE =          18704.30         STORAGE CHANGE =         -34983.56
       --------------                             --------------
         LAND SURFACE =          18163.74           LAND SURFACE =          -1654.25
            SOIL ZONE =        2339994.62              SOIL ZONE =         -21239.43
     UNSATURATED ZONE =       -3021580.11       UNSATURATED ZONE =         -11079.60
       SATURATED ZONE =         682126.05         SATURATED ZONE =          -1010.28

 OVERALL BUDGET ERROR =          19426.27           BUDGET ERROR =            -48.66


  PERCENT DISCREPANCY =              0.55    PERCENT DISCREPANCY =             -0.14



1
 SUMMARY VOLUMETRIC BUDGET FOR GSFLOW 
 DATE: 02 24 1991              CUMULATIVE TIME STEP:      24
 MODFLOW STRESS PERIOD      6     CURRENT TIME STEP:     147     ITERATIONS:       8

 -----------------------------------------------------------------------------------

   CUMULATIVE VOLUMES               L**3   RATES FOR THIS TIME STEP           L**3/T
   ------------------                      ------------------------

                                     IN                                         IN
                                     --                                         --
        PRECIPITATION =        3510173.01          PRECIPITATION =                  
           STREAMFLOW =                               STREAMFLOW =                  
     GW BOUNDARY FLOW =             27.31       GW BOUNDARY FLOW =              0.76


                                    OUT                                        OUT
                                    ---                                        ---
   EVAPOTRANSPIRATION =        2195674.73     EVAPOTRANSPIRATION =          21905.70
           STREAMFLOW =        1569146.18             STREAMFLOW =          11660.02
     GW BOUNDARY FLOW =           5268.84       GW BOUNDARY FLOW =             35.50

   INFLOWS - OUTFLOWS =        -259889.43     INFLOWS - OUTFLOWS =         -33600.45
             --------                                   --------

 TOTAL STORAGE CHANGE =        -278890.76         STORAGE CHANGE =         -33566.98
       --------------                             --------------
         LAND SURFACE =           6686.42           LAND SURFACE =           -239.07
            SOIL ZONE =        2138045.80              SOIL ZONE =         -21422.63
     UNSATURATED ZONE =       -3097492.56       UNSATURATED ZONE =         -10665.46
       SATURATED ZONE =         673869.58         SATURATED ZONE =          -1239.83

 OVERALL BUDGET ERROR =          19001.33           BUDGET ERROR =            -33.47


  PERCENT DISCREPANCY =              0.50    PERCENT DISCREPANCY =             -0.10



1
 SUMMARY VOLUMETRIC BUDGET FOR GSFLOW 
 DATE: 03 03 1991              CUMULATIVE TIME STEP:       3
 MODFLOW STRESS PERIOD      7     CURRENT TIME STEP:     154     ITERATIONS:       5

 -----------------------------------------------------------------------------------

   CUMULATIVE VOLUMES               L**3   RATES FOR THIS TIME STEP           L**3/T
   ------------------                      ------------------------

                                     IN                                         IN
                                     --                                         --
        PRECIPITATION =        6220189.63          PRECIPITATION =        1243187.24
           STREAMFLOW =                               STREAMFLOW =                  
     GW BOUNDARY FLOW =             32.92       GW BOUNDARY FLOW =              0.83


                                    OUT                                        OUT
                                    ---                                        ---
   EVAPOTRANSPIRATION =        2347902.42     EVAPOTRANSPIRATION =           7988.01
           STREAMFLOW =        1652115.01             STREAMFLOW =          11824.63
     GW BOUNDARY FLOW =           5516.68       GW BOUNDARY FLOW =             35.32

   INFLOWS - OUTFLOWS =        2214688.45     INFLOWS - OUTFLOWS =        1223340.11
             --------                                   --------

 TOTAL STORAGE CHANGE =        2191680.40         STORAGE CHANGE =        1219062.28
       --------------                             --------------
         LAND SURFACE =        2505892.53           LAND SURFACE =        1046737.06
            SOIL ZONE =        2195830.70              SOIL ZONE =         184920.71
     UNSATURATED ZONE =       -3170566.37       UNSATURATED ZONE =         -10271.81
       SATURATED ZONE =         660523.54         SATURATED ZONE =          -2323.68

 OVERALL BUDGET ERROR =          23008.05           BUDGET ERROR =           4277.83


  PERCENT DISCREPANCY =              0.37    PERCENT DISCREPANCY =              0.34



1
 SUMMARY VOLUMETRIC BUDGET FOR GSFLOW 
 DATE: 03 10 1991              CUMULATIVE TIME STEP:      10
 MODFLOW STRESS PERIOD      7     CURRENT TIME STEP:     161     ITERATIONS:       5

 -----------------------------------------------------------------------------------

   CUMULATIVE VOLUMES               L**3   RATES FOR THIS TIME STEP           L**3/T
   ------------------                      ------------------------

                                     IN                                         IN
                                     --                                         --
        PRECIPITATION =        8746030.42          PRECIPITATION =          32888.55
           STREAMFLOW =                               STREAMFLOW =                  
     GW BOUNDARY FLOW =             38.96       GW BOUNDARY FLOW =              0.89


                                    OUT                                        OUT
                                    ---                                        ---
   EVAPOTRANSPIRATION =        2400681.30     EVAPOTRANSPIRATION =           6896.20
           STREAMFLOW =        1746311.26             STREAMFLOW =          12466.67
     GW BOUNDARY FLOW =           5763.80       GW BOUNDARY FLOW =             35.23

   INFLOWS - OUTFLOWS =        4593313.02     INFLOWS - OUTFLOWS =          13491.34
             --------                                   --------

 TOTAL STORAGE CHANGE =        4562045.47         STORAGE CHANGE =          18162.00
       --------------                             --------------
         LAND SURFACE =        3056677.02           LAND SURFACE =          -5526.40
            SOIL ZONE =        4069523.24              SOIL ZONE =          30833.35
     UNSATURATED ZONE =       -3209934.95       UNSATURATED ZONE =          -4771.34
       SATURATED ZONE =         645780.16         SATURATED ZONE =          -2373.62

 OVERALL BUDGET ERROR =          31267.54           BUDGET ERROR =          -4670.66

  ***CAUTION, FLUX RATES OFF > 10%

  PERCENT DISCREPANCY =              0.36    PERCENT DISCREPANCY =            -13.26



1
 SUMMARY VOLUMETRIC BUDGET FOR GSFLOW 
 DATE: 03 17 1991              CUMULATIVE TIME STEP:      17
 MODFLOW STRESS PERIOD      7     CURRENT TIME STEP:     168     ITERATIONS:       5

 -----------------------------------------------------------------------------------

   CUMULATIVE VOLUMES               L**3   RATES FOR THIS TIME STEP           L**3/T
   ------------------                      ------------------------

                                     IN                                         IN
                                     --                                         --
        PRECIPITATION =        9897129.71          PRECIPITATION =         157865.04
           STREAMFLOW =                               STREAMFLOW =                  
     GW BOUNDARY FLOW =             45.42       GW BOUNDARY FLOW =              0.95


                                    OUT                                        OUT
                                    ---                                        ---
   EVAPOTRANSPIRATION =        2422088.42     EVAPOTRANSPIRATION =           6378.34
           STREAMFLOW =        1835060.56             STREAMFLOW =          12862.11
     GW BOUNDARY FLOW =           6009.97       GW BOUNDARY FLOW =             35.12

   INFLOWS - OUTFLOWS =        5634016.18     INFLOWS - OUTFLOWS =         138590.41
             --------                                   --------

 TOTAL STORAGE CHANGE =        5606413.12         STORAGE CHANGE =         138365.30
       --------------                             --------------
         LAND SURFACE =        4188230.79           LAND SURFACE =         152136.56
            SOIL ZONE =        4032698.10              SOIL ZONE =          -6011.69
     UNSATURATED ZONE =       -3243571.73       UNSATURATED ZONE =          -5044.28
       SATURATED ZONE =         629055.96         SATURATED ZONE =          -2715.30

 OVERALL BUDGET ERROR =          27603.06           BUDGET ERROR =            225.12


  PERCENT DISCREPANCY =              0.28    PERCENT DISCREPANCY =              0.14



1
 SUMMARY VOLUMETRIC BUDGET FOR GSFLOW 
 DATE: 03 24 1991              CUMULATIVE TIME STEP:      24
 MODFLOW STRESS PERIOD      7     CURRENT TIME STEP:     175     ITERATIONS:       6

 -----------------------------------------------------------------------------------

   CUMULATIVE VOLUMES               L**3   RATES FOR THIS TIME STEP           L**3/T
   ------------------                      ------------------------

                                     IN                                         IN
                                     --                                         --
        PRECIPITATION =        1.1673D+07          PRECIPITATION =        1230031.83
           STREAMFLOW =                               STREAMFLOW =                  
     GW BOUNDARY FLOW =             52.29       GW BOUNDARY FLOW =              1.01


                                    OUT                                        OUT
                                    ---                                        ---
   EVAPOTRANSPIRATION =        2452988.46     EVAPOTRANSPIRATION =           3632.58
           STREAMFLOW =        1950750.09             STREAMFLOW =          14620.87
     GW BOUNDARY FLOW =           6256.00       GW BOUNDARY FLOW =             35.06

   INFLOWS - OUTFLOWS =        7263169.25     INFLOWS - OUTFLOWS =        1211744.33
             --------                                   --------

 TOTAL STORAGE CHANGE =        7267555.43         STORAGE CHANGE =        1211567.79
       --------------                             --------------
         LAND SURFACE =        5933783.02           LAND SURFACE =        1227482.51
            SOIL ZONE =        4002788.77              SOIL ZONE =          -7937.46
     UNSATURATED ZONE =       -3278838.53       UNSATURATED ZONE =          -5094.41
       SATURATED ZONE =         609822.18         SATURATED ZONE =          -2882.85

 OVERALL BUDGET ERROR =          -4386.18           BUDGET ERROR =            176.54


  PERCENT DISCREPANCY =             -0.04    PERCENT DISCREPANCY =              0.01



1
 SUMMARY VOLUMETRIC BUDGET FOR GSFLOW 
 DATE: 03 31 1991              CUMULATIVE TIME STEP:      31
 MODFLOW STRESS PERIOD      7     CURRENT TIME STEP:     182     ITERATIONS:       6

 -----------------------------------------------------------------------------------

   CUMULATIVE VOLUMES               L**3   RATES FOR THIS TIME STEP           L**3/T
   ------------------                      ------------------------

                                     IN                                         IN
                                     --                                         --
        PRECIPITATION =        1.2495D+07          PRECIPITATION =                  
           STREAMFLOW =                               STREAMFLOW =                  
     GW BOUNDARY FLOW =             59.55       GW BOUNDARY FLOW =              1.06


                                    OUT                                        OUT
                                    ---                                        ---
   EVAPOTRANSPIRATION =        2559943.92     EVAPOTRANSPIRATION =          43860.29
           STREAMFLOW =        2079526.35             STREAMFLOW =          31829.31
     GW BOUNDARY FLOW =           6501.38       GW BOUNDARY FLOW =             35.25

   INFLOWS - OUTFLOWS =        7849413.20     INFLOWS - OUTFLOWS =         -75723.79
             --------                                   --------

 TOTAL STORAGE CHANGE =        7890197.28         STORAGE CHANGE =         -55929.41
       --------------                             --------------
         LAND SURFACE =        6553217.20           LAND SURFACE =        -112248.23
            SOIL ZONE =        4061222.87              SOIL ZONE =          63852.32
     UNSATURATED ZONE =       -3313309.77       UNSATURATED ZONE =          -4341.83
       SATURATED ZONE =         589066.98         SATURATED ZONE =          -3191.67

 OVERALL BUDGET ERROR =         -40784.08           BUDGET ERROR =         -19794.38

  ***CAUTION, FLUX RATES OFF > 10%

  PERCENT DISCREPANCY =             -0.33    PERCENT DISCREPANCY =            -30.07



1
 SUMMARY VOLUMETRIC BUDGET FOR GSFLOW 
 DATE: 04 07 1991              CUMULATIVE TIME STEP:       7
 MODFLOW STRESS PERIOD      8     CURRENT TIME STEP:     189     ITERATIONS:       5

 -----------------------------------------------------------------------------------

   CUMULATIVE VOLUMES               L**3   RATES FOR THIS TIME STEP           L**3/T
   ------------------                      ------------------------

                                     IN                                         IN
                                     --                                         --
        PRECIPITATION =        1.3018D+07          PRECIPITATION =                  
           STREAMFLOW =                               STREAMFLOW =                  
     GW BOUNDARY FLOW =             67.16       GW BOUNDARY FLOW =              1.10


                                    OUT                                        OUT
                                    ---                                        ---
   EVAPOTRANSPIRATION =        2843630.78     EVAPOTRANSPIRATION =          13608.38
           STREAMFLOW =        2594685.09             STREAMFLOW =         108282.03
     GW BOUNDARY FLOW =           6751.30       GW BOUNDARY FLOW =             36.08

   INFLOWS - OUTFLOWS =        7572736.71     INFLOWS - OUTFLOWS =        -121925.39
             --------                                   --------

 TOTAL STORAGE CHANGE =        7949642.49         STORAGE CHANGE =         -41824.23
       --------------                             --------------
         LAND SURFACE =        5033740.14           LAND SURFACE =         -59134.98
            SOIL ZONE =        5649211.72              SOIL ZONE =          11713.42
     UNSATURATED ZONE =       -3303081.03       UNSATURATED ZONE =           7833.70
       SATURATED ZONE =         569771.67         SATURATED ZONE =          -2236.37

 OVERALL BUDGET ERROR =        -376905.78           BUDGET ERROR =         -80101.16

  ***CAUTION, FLUX RATES OFF > 10%

  PERCENT DISCREPANCY =             -2.85    PERCENT DISCREPANCY =            -97.83



1
 SUMMARY VOLUMETRIC BUDGET FOR GSFLOW 
 DATE: 04 14 1991              CUMULATIVE TIME STEP:      14
 MODFLOW STRESS PERIOD      8     CURRENT TIME STEP:     196     ITERATIONS:       7

 -----------------------------------------------------------------------------------

   CUMULATIVE VOLUMES               L**3   RATES FOR THIS TIME STEP           L**3/T
   ------------------                      ------------------------

                                     IN                                         IN
                                     --                                         --
        PRECIPITATION =        1.3018D+07          PRECIPITATION =                  
           STREAMFLOW =                               STREAMFLOW =                  
     GW BOUNDARY FLOW =             75.06       GW BOUNDARY FLOW =              1.15


                                    OUT                                        OUT
                                    ---                                        ---
   EVAPOTRANSPIRATION =        3013822.03     EVAPOTRANSPIRATION =          38947.90
           STREAMFLOW =        3407139.55             STREAMFLOW =         178702.44
     GW BOUNDARY FLOW =           7003.50       GW BOUNDARY FLOW =             36.59

   INFLOWS - OUTFLOWS =        6589846.72     INFLOWS - OUTFLOWS =        -217685.77
             --------                                   --------

 TOTAL STORAGE CHANGE =        7469171.53         STORAGE CHANGE =         -96902.19
       --------------                             --------------
         LAND SURFACE =        4429762.57           LAND SURFACE =        -170838.53
            SOIL ZONE =        5729850.04              SOIL ZONE =          67690.66
     UNSATURATED ZONE =       -3246644.78       UNSATURATED ZONE =           7780.41
       SATURATED ZONE =         556203.70         SATURATED ZONE =          -1534.73

 OVERALL BUDGET ERROR =        -879324.81           BUDGET ERROR =        -120783.58

  ***WARNING, CUMULATIVE VOLUME OFF > 5%
  ***CAUTION, FLUX RATES OFF > 10%

  PERCENT DISCREPANCY =             -6.53    PERCENT DISCREPANCY =            -76.79



1
 SUMMARY VOLUMETRIC BUDGET FOR GSFLOW 
 DATE: 04 21 1991              CUMULATIVE TIME STEP:      21
 MODFLOW STRESS PERIOD      8     CURRENT TIME STEP:     203     ITERATIONS:      10

 -----------------------------------------------------------------------------------

   CUMULATIVE VOLUMES               L**3   RATES FOR THIS TIME STEP           L**3/T
   ------------------                      ------------------------

                                     IN                                         IN
                                     --                                         --
        PRECIPITATION =        1.3034D+07          PRECIPITATION =                  
           STREAMFLOW =                               STREAMFLOW =                  
     GW BOUNDARY FLOW =             83.20       GW BOUNDARY FLOW =              1.17


                                    OUT                                        OUT
                                    ---                                        ---
   EVAPOTRANSPIRATION =        3245730.38     EVAPOTRANSPIRATION =          43528.00
           STREAMFLOW =        4886339.53             STREAMFLOW =         244332.84
     GW BOUNDARY FLOW =           7260.93       GW BOUNDARY FLOW =             36.98

   INFLOWS - OUTFLOWS =        4894814.45     INFLOWS - OUTFLOWS =        -287896.65
             --------                                   --------

 TOTAL STORAGE CHANGE =        6794179.91         STORAGE CHANGE =        -120862.76
       --------------                             --------------
         LAND SURFACE =        3339485.95           LAND SURFACE =        -212222.76
            SOIL ZONE =        6094041.17              SOIL ZONE =          82172.53
     UNSATURATED ZONE =       -3187175.18       UNSATURATED ZONE =          10140.61
       SATURATED ZONE =         547827.97         SATURATED ZONE =           -953.13

 OVERALL BUDGET ERROR =       -1899365.47           BUDGET ERROR =        -167033.88

  ***WARNING, CUMULATIVE VOLUME OFF > 5%
  ***CAUTION, FLUX RATES OFF > 10%

  PERCENT DISCREPANCY =            -13.58    PERCENT DISCREPANCY =            -81.73



1
 SUMMARY VOLUMETRIC BUDGET FOR GSFLOW 
 DATE: 04 28 1991              CUMULATIVE TIME STEP:      28
 MODFLOW STRESS PERIOD      8     CURRENT TIME STEP:     210     ITERATIONS:       6

 -----------------------------------------------------------------------------------

   CUMULATIVE VOLUMES               L**3   RATES FOR THIS TIME STEP           L**3/T
   ------------------                      ------------------------

                                     IN                                         IN
                                     --                                         --
        PRECIPITATION =        1.3303D+07          PRECIPITATION =                  
           STREAMFLOW =                               STREAMFLOW =                  
     GW BOUNDARY FLOW =             91.53       GW BOUNDARY FLOW =              1.20


                                    OUT                                        OUT
                                    ---                                        ---
   EVAPOTRANSPIRATION =        3493087.31     EVAPOTRANSPIRATION =          55471.29
           STREAMFLOW =        6592696.52             STREAMFLOW =         247033.95
     GW BOUNDARY FLOW =           7519.30       GW BOUNDARY FLOW =             36.89

   INFLOWS - OUTFLOWS =        3210218.91     INFLOWS - OUTFLOWS =        -302540.93
             --------                                   --------

 TOTAL STORAGE CHANGE =        6291313.57         STORAGE CHANGE =        -128093.01
       --------------                             --------------
         LAND SURFACE =        2758651.61           LAND SURFACE =        -113752.45
            SOIL ZONE =        6104759.15              SOIL ZONE =         -23193.64
     UNSATURATED ZONE =       -3114298.50       UNSATURATED ZONE =           9572.69
       SATURATED ZONE =         542201.31         SATURATED ZONE =           -719.61

 OVERALL BUDGET ERROR =       -3081094.66           BUDGET ERROR =        -174447.92

  ***WARNING, CUMULATIVE VOLUME OFF > 5%
  ***CAUTION, FLUX RATES OFF > 10%

  PERCENT DISCREPANCY =            -20.76    PERCENT DISCREPANCY =            -81.02



1
 SUMMARY VOLUMETRIC BUDGET FOR GSFLOW 
 DATE: 05 05 1991              CUMULATIVE TIME STEP:       5
 MODFLOW STRESS PERIOD      9     CURRENT TIME STEP:     217     ITERATIONS:       6

 -----------------------------------------------------------------------------------

   CUMULATIVE VOLUMES               L**3   RATES FOR THIS TIME STEP           L**3/T
   ------------------                      ------------------------

                                     IN                                         IN
                                     --                                         --
        PRECIPITATION =        1.3510D+07          PRECIPITATION =                  
           STREAMFLOW =                               STREAMFLOW =                  
     GW BOUNDARY FLOW =            100.06       GW BOUNDARY FLOW =              1.23


                                    OUT                                        OUT
                                    ---                                        ---
   EVAPOTRANSPIRATION =        3843070.44     EVAPOTRANSPIRATION =          85089.73
           STREAMFLOW =        8115419.05             STREAMFLOW =         206317.53
     GW BOUNDARY FLOW =           7775.50       GW BOUNDARY FLOW =             36.44

   INFLOWS - OUTFLOWS =        1543543.21     INFLOWS - OUTFLOWS =        -291442.47
             --------                                   --------

 TOTAL STORAGE CHANGE =        5674910.32         STORAGE CHANGE =        -155853.90
       --------------                             --------------
         LAND SURFACE =        2105621.17           LAND SURFACE =        -166214.31
            SOIL ZONE =        6083514.37              SOIL ZONE =           1812.51
     UNSATURATED ZONE =       -3051129.35       UNSATURATED ZONE =           9173.66
       SATURATED ZONE =         536904.13         SATURATED ZONE =           -625.76

 OVERALL BUDGET ERROR =       -4131367.11           BUDGET ERROR =        -135588.58

  ***WARNING, CUMULATIVE VOLUME OFF > 5%
  ***CAUTION, FLUX RATES OFF > 10%

  PERCENT DISCREPANCY =            -26.52    PERCENT DISCREPANCY =            -60.63



1
 SUMMARY VOLUMETRIC BUDGET FOR GSFLOW 
 DATE: 05 12 1991              CUMULATIVE TIME STEP:      12
 MODFLOW STRESS PERIOD      9     CURRENT TIME STEP:     224     ITERATIONS:      10

 -----------------------------------------------------------------------------------

   CUMULATIVE VOLUMES               L**3   RATES FOR THIS TIME STEP           L**3/T
   ------------------                      ------------------------

                                     IN                                         IN
                                     --                                         --
        PRECIPITATION =        1.4029D+07          PRECIPITATION =                  
           STREAMFLOW =                               STREAMFLOW =                  
     GW BOUNDARY FLOW =            108.81       GW BOUNDARY FLOW =              1.26


                                    OUT                                        OUT
                                    ---                                        ---
   EVAPOTRANSPIRATION =        4213354.76     EVAPOTRANSPIRATION =          62812.25
           STREAMFLOW =        9573259.66             STREAMFLOW =         179772.28
     GW BOUNDARY FLOW =           8029.95       GW BOUNDARY FLOW =             36.06

   INFLOWS - OUTFLOWS =         234686.61     INFLOWS - OUTFLOWS =        -242619.33
             --------                                   --------

 TOTAL STORAGE CHANGE =        5345338.49         STORAGE CHANGE =        -139034.18
       --------------                             --------------
         LAND SURFACE =        1671151.52           LAND SURFACE =        -195073.28
            SOIL ZONE =        6129997.75              SOIL ZONE =          47679.59
     UNSATURATED ZONE =       -2990689.59       UNSATURATED ZONE =           8362.04
       SATURATED ZONE =         534878.81         SATURATED ZONE =             -2.53

 OVERALL BUDGET ERROR =       -5110651.88           BUDGET ERROR =        -103585.15

  ***WARNING, CUMULATIVE VOLUME OFF > 5%
  ***CAUTION, FLUX RATES OFF > 10%

  PERCENT DISCREPANCY =            -30.82    PERCENT DISCREPANCY =            -54.28



1
 SUMMARY VOLUMETRIC BUDGET FOR GSFLOW 
 DATE: 05 19 1991              CUMULATIVE TIME STEP:      19
 MODFLOW STRESS PERIOD      9     CURRENT TIME STEP:     231     ITERATIONS:       6

 -----------------------------------------------------------------------------------

   CUMULATIVE VOLUMES               L**3   RATES FOR THIS TIME STEP           L**3/T
   ------------------                      ------------------------

                                     IN                                         IN
                                     --                                         --
        PRECIPITATION =        1.4365D+07          PRECIPITATION =                  
           STREAMFLOW =                               STREAMFLOW =                  
     GW BOUNDARY FLOW =            117.80       GW BOUNDARY FLOW =              1.30


                                    OUT                                        OUT
                                    ---                                        ---
   EVAPOTRANSPIRATION =        4613851.92     EVAPOTRANSPIRATION =          18047.46
           STREAMFLOW =        1.0531D+07             STREAMFLOW =          73617.36
     GW BOUNDARY FLOW =           8278.98       GW BOUNDARY FLOW =             34.89

   INFLOWS - OUTFLOWS =        -787995.34     INFLOWS - OUTFLOWS =         -91698.40
             --------                                   --------

 TOTAL STORAGE CHANGE =        4812128.01         STORAGE CHANGE =         -75362.98
       --------------                             --------------
         LAND SURFACE =        1131549.54           LAND SURFACE =         -21030.92
            SOIL ZONE =        6080018.19              SOIL ZONE =         -61171.36
     UNSATURATED ZONE =       -2931364.78       UNSATURATED ZONE =           7390.88
       SATURATED ZONE =         531925.06         SATURATED ZONE =           -551.59

 OVERALL BUDGET ERROR =       -5600123.35           BUDGET ERROR =         -16335.42

  ***WARNING, CUMULATIVE VOLUME OFF > 5%
  ***CAUTION, FLUX RATES OFF > 10%

  PERCENT DISCREPANCY =            -32.62    PERCENT DISCREPANCY =            -19.56



1
 SUMMARY VOLUMETRIC BUDGET FOR GSFLOW 
 DATE: 05 26 1991              CUMULATIVE TIME STEP:      26
 MODFLOW STRESS PERIOD      9     CURRENT TIME STEP:     238     ITERATIONS:       6

 -----------------------------------------------------------------------------------

   CUMULATIVE VOLUMES               L**3   RATES FOR THIS TIME STEP           L**3/T
   ------------------                      ------------------------

                                     IN                                         IN
                                     --                                         --
        PRECIPITATION =        1.4426D+07          PRECIPITATION =                  
           STREAMFLOW =                               STREAMFLOW =                  
     GW BOUNDARY FLOW =            127.08       GW BOUNDARY FLOW =              1.34


                                    OUT                                        OUT
                                    ---                                        ---
   EVAPOTRANSPIRATION =        5261647.08     EVAPOTRANSPIRATION =          71086.09
           STREAMFLOW =        1.0988D+07             STREAMFLOW =          46458.97
     GW BOUNDARY FLOW =           8521.68       GW BOUNDARY FLOW =             34.36

   INFLOWS - OUTFLOWS =       -1831787.17     INFLOWS - OUTFLOWS =        -117578.08
             --------                                   --------

 TOTAL STORAGE CHANGE =        3869330.06         STORAGE CHANGE =        -109327.77
       --------------                             --------------
         LAND SURFACE =         596309.92           LAND SURFACE =         -39567.86
            SOIL ZONE =        5633703.17              SOIL ZONE =         -72993.62
     UNSATURATED ZONE =       -2890567.61       UNSATURATED ZONE =           3522.42
       SATURATED ZONE =         529884.58         SATURATED ZONE =           -288.71

 OVERALL BUDGET ERROR =       -5701117.23           BUDGET ERROR =          -8250.31

  ***WARNING, CUMULATIVE VOLUME OFF > 5%
  ***WARNING, FLUX RATES OFF > 3%

  PERCENT DISCREPANCY =            -33.00    PERCENT DISCREPANCY =             -7.27



1
 SUMMARY VOLUMETRIC BUDGET FOR GSFLOW 
 DATE: 06 02 1991              CUMULATIVE TIME STEP:       2
 MODFLOW STRESS PERIOD     10     CURRENT TIME STEP:     245     ITERATIONS:       6

 -----------------------------------------------------------------------------------

   CUMULATIVE VOLUMES               L**3   RATES FOR THIS TIME STEP           L**3/T
   ------------------                      ------------------------

                                     IN                                         IN
                                     --                                         --
        PRECIPITATION =        1.4671D+07          PRECIPITATION =                  
           STREAMFLOW =                               STREAMFLOW =                  
     GW BOUNDARY FLOW =            136.65       GW BOUNDARY FLOW =              1.39


                                    OUT                                        OUT
                                    ---                                        ---
   EVAPOTRANSPIRATION =        5807180.72     EVAPOTRANSPIRATION =         119358.78
           STREAMFLOW =        1.1315D+07             STREAMFLOW =          34952.07
     GW BOUNDARY FLOW =           8761.54       GW BOUNDARY FLOW =             34.03

   INFLOWS - OUTFLOWS =       -2459405.80     INFLOWS - OUTFLOWS =        -154343.50
             --------                                   --------

 TOTAL STORAGE CHANGE =        3300312.73         STORAGE CHANGE =        -152262.40
       --------------                             --------------
         LAND SURFACE =         342585.53           LAND SURFACE =         -44718.56
            SOIL ZONE =        5306808.94              SOIL ZONE =        -108394.31
     UNSATURATED ZONE =       -2875262.46       UNSATURATED ZONE =           1550.76
       SATURATED ZONE =         526180.72         SATURATED ZONE =           -700.29

 OVERALL BUDGET ERROR =       -5759718.52           BUDGET ERROR =          -2081.10

  ***WARNING, CUMULATIVE VOLUME OFF > 5%

  PERCENT DISCREPANCY =            -32.82    PERCENT DISCREPANCY =             -1.36



1
 SUMMARY VOLUMETRIC BUDGET FOR GSFLOW 
 DATE: 06 09 1991              CUMULATIVE TIME STEP:       9
 MODFLOW STRESS PERIOD     10     CURRENT TIME STEP:     252     ITERATIONS:       6

 -----------------------------------------------------------------------------------

   CUMULATIVE VOLUMES               L**3   RATES FOR THIS TIME STEP           L**3/T
   ------------------                      ------------------------

                                     IN                                         IN
                                     --                                         --
        PRECIPITATION =        1.4671D+07          PRECIPITATION =                  
           STREAMFLOW =                               STREAMFLOW =                  
     GW BOUNDARY FLOW =            146.52       GW BOUNDARY FLOW =              1.43


                                    OUT                                        OUT
                                    ---                                        ---
   EVAPOTRANSPIRATION =        6523344.29     EVAPOTRANSPIRATION =         166481.52
           STREAMFLOW =        1.1512D+07             STREAMFLOW =          23126.38
     GW BOUNDARY FLOW =           8998.36       GW BOUNDARY FLOW =             33.68

   INFLOWS - OUTFLOWS =       -3373420.86     INFLOWS - OUTFLOWS =        -189640.14
             --------                                   --------

 TOTAL STORAGE CHANGE =        2397187.30         STORAGE CHANGE =        -187867.67
       --------------                             --------------
         LAND SURFACE =         143816.55           LAND SURFACE =         -32280.14
            SOIL ZONE =        4615083.82              SOIL ZONE =        -151982.57
     UNSATURATED ZONE =       -2879502.98       UNSATURATED ZONE =          -2175.91
       SATURATED ZONE =         517789.92         SATURATED ZONE =          -1429.06

 OVERALL BUDGET ERROR =       -5770608.16           BUDGET ERROR =          -1772.47

  ***WARNING, CUMULATIVE VOLUME OFF > 5%

  PERCENT DISCREPANCY =            -32.87    PERCENT DISCREPANCY =             -0.94



1
 SUMMARY VOLUMETRIC BUDGET FOR GSFLOW 
 DATE: 06 16 1991              CUMULATIVE TIME STEP:      16
 MODFLOW STRESS PERIOD     10     CURRENT TIME STEP:     259     ITERATIONS:       6

 -----------------------------------------------------------------------------------

   CUMULATIVE VOLUMES               L**3   RATES FOR THIS TIME STEP           L**3/T
   ------------------                      ------------------------

                                     IN                                         IN
                                     --                                         --
        PRECIPITATION =        1.4671D+07          PRECIPITATION =                  
           STREAMFLOW =                               STREAMFLOW =                  
     GW BOUNDARY FLOW =            156.70       GW BOUNDARY FLOW =              1.47


                                    OUT                                        OUT
                                    ---                                        ---
   EVAPOTRANSPIRATION =        7482816.98     EVAPOTRANSPIRATION =         108602.09
           STREAMFLOW =        1.1644D+07             STREAMFLOW =          17832.43
     GW BOUNDARY FLOW =           9232.90       GW BOUNDARY FLOW =             33.42

   INFLOWS - OUTFLOWS =       -4465269.49     INFLOWS - OUTFLOWS =        -126466.47
             --------                                   --------

 TOTAL STORAGE CHANGE =        1314492.42         STORAGE CHANGE =        -125469.56
       --------------                             --------------
         LAND SURFACE =          39366.58           LAND SURFACE =          -6891.90
            SOIL ZONE =        3696175.96              SOIL ZONE =        -106026.60
     UNSATURATED ZONE =       -2923290.51       UNSATURATED ZONE =          -9582.95
       SATURATED ZONE =         502240.38         SATURATED ZONE =          -2968.11

 OVERALL BUDGET ERROR =       -5779761.91           BUDGET ERROR =           -996.91

  ***WARNING, CUMULATIVE VOLUME OFF > 5%

  PERCENT DISCREPANCY =            -32.91    PERCENT DISCREPANCY =             -0.79



1
 SUMMARY VOLUMETRIC BUDGET FOR GSFLOW 
 DATE: 06 23 1991              CUMULATIVE TIME STEP:      23
 MODFLOW STRESS PERIOD     10     CURRENT TIME STEP:     266     ITERATIONS:       6

 -----------------------------------------------------------------------------------

   CUMULATIVE VOLUMES               L**3   RATES FOR THIS TIME STEP           L**3/T
   ------------------                      ------------------------

                                     IN                                         IN
                                     --                                         --
        PRECIPITATION =        1.4671D+07          PRECIPITATION =                  
           STREAMFLOW =                               STREAMFLOW =                  
     GW BOUNDARY FLOW =            167.10       GW BOUNDARY FLOW =              1.47


                                    OUT                                        OUT
                                    ---                                        ---
   EVAPOTRANSPIRATION =        7964421.00     EVAPOTRANSPIRATION =          34717.50
           STREAMFLOW =        1.1763D+07             STREAMFLOW =          16531.04
     GW BOUNDARY FLOW =           9466.13       GW BOUNDARY FLOW =             33.25

   INFLOWS - OUTFLOWS =       -5065542.35     INFLOWS - OUTFLOWS =         -51280.32
             --------                                   --------

 TOTAL STORAGE CHANGE =         718819.74         STORAGE CHANGE =         -50981.60
       --------------                             --------------
         LAND SURFACE =          15682.85           LAND SURFACE =          -1548.12
            SOIL ZONE =        3222583.41              SOIL ZONE =         -36497.75
     UNSATURATED ZONE =       -2995801.81       UNSATURATED ZONE =          -8893.05
[...]
             --------                                   --------

 TOTAL STORAGE CHANGE =       -9528526.88         STORAGE CHANGE =        -101491.79
       --------------                             --------------
         LAND SURFACE =         518159.99           LAND SURFACE =         -24360.57
            SOIL ZONE =        2807764.97              SOIL ZONE =         -65166.47
     UNSATURATED ZONE =          99085.15       UNSATURATED ZONE =          -9236.75
       SATURATED ZONE =       -1.2954D+07         SATURATED ZONE =          -2728.00

 OVERALL BUDGET ERROR =       -1.7567D+08           BUDGET ERROR =           -957.41

  ***WARNING, CUMULATIVE VOLUME OFF > 5%

  PERCENT DISCREPANCY =            -76.09    PERCENT DISCREPANCY =             -0.94



1
 SUMMARY VOLUMETRIC BUDGET FOR GSFLOW 
 DATE: 09 03 1995              CUMULATIVE TIME STEP:       3
 MODFLOW STRESS PERIOD     61     CURRENT TIME STEP:    1799     ITERATIONS:       6

 -----------------------------------------------------------------------------------

   CUMULATIVE VOLUMES               L**3   RATES FOR THIS TIME STEP           L**3/T
   ------------------                      ------------------------

                                     IN                                         IN
                                     --                                         --
        PRECIPITATION =        1.3351D+08          PRECIPITATION =                  
           STREAMFLOW =                               STREAMFLOW =                  
     GW BOUNDARY FLOW =           5220.45       GW BOUNDARY FLOW =              3.05


                                    OUT                                        OUT
                                    ---                                        ---
   EVAPOTRANSPIRATION =        7.5210D+07     EVAPOTRANSPIRATION =          80432.86
           STREAMFLOW =        2.4414D+08             STREAMFLOW =          13489.45
     GW BOUNDARY FLOW =          52893.75       GW BOUNDARY FLOW =             25.20

   INFLOWS - OUTFLOWS =       -1.8589D+08     INFLOWS - OUTFLOWS =         -93944.46
             --------                                   --------

 TOTAL STORAGE CHANGE =       -1.0219D+07         STORAGE CHANGE =         -93841.70
       --------------                             --------------
         LAND SURFACE =         367299.23           LAND SURFACE =         -19252.55
            SOIL ZONE =        2361630.30              SOIL ZONE =         -60367.98
     UNSATURATED ZONE =          31500.47       UNSATURATED ZONE =          -9835.08
       SATURATED ZONE =       -1.2980D+07         SATURATED ZONE =          -4386.09

 OVERALL BUDGET ERROR =       -1.7567D+08           BUDGET ERROR =           -102.76

  ***WARNING, CUMULATIVE VOLUME OFF > 5%

  PERCENT DISCREPANCY =            -75.86    PERCENT DISCREPANCY =             -0.11



1
 SUMMARY VOLUMETRIC BUDGET FOR GSFLOW 
 DATE: 09 10 1995              CUMULATIVE TIME STEP:      10
 MODFLOW STRESS PERIOD     61     CURRENT TIME STEP:    1806     ITERATIONS:       7

 -----------------------------------------------------------------------------------

   CUMULATIVE VOLUMES               L**3   RATES FOR THIS TIME STEP           L**3/T
   ------------------                      ------------------------

                                     IN                                         IN
                                     --                                         --
        PRECIPITATION =        1.3351D+08          PRECIPITATION =                  
           STREAMFLOW =                               STREAMFLOW =                  
     GW BOUNDARY FLOW =           5242.29       GW BOUNDARY FLOW =              3.17


                                    OUT                                        OUT
                                    ---                                        ---
   EVAPOTRANSPIRATION =        7.5664D+07     EVAPOTRANSPIRATION =          60862.48
           STREAMFLOW =        2.4423D+08             STREAMFLOW =          12511.28
     GW BOUNDARY FLOW =          53069.93       GW BOUNDARY FLOW =             25.15

   INFLOWS - OUTFLOWS =       -1.8644D+08     INFLOWS - OUTFLOWS =         -73395.74
             --------                                   --------

 TOTAL STORAGE CHANGE =       -1.0764D+07         STORAGE CHANGE =         -73369.05
       --------------                             --------------
         LAND SURFACE =         267725.61           LAND SURFACE =         -12446.55
            SOIL ZONE =        2014917.63              SOIL ZONE =         -46563.66
     UNSATURATED ZONE =         -35251.74       UNSATURATED ZONE =          -9451.03
       SATURATED ZONE =       -1.3011D+07         SATURATED ZONE =          -4907.82

 OVERALL BUDGET ERROR =       -1.7567D+08           BUDGET ERROR =            -26.69

  ***WARNING, CUMULATIVE VOLUME OFF > 5%

  PERCENT DISCREPANCY =            -75.68    PERCENT DISCREPANCY =             -0.04



1
 SUMMARY VOLUMETRIC BUDGET FOR GSFLOW 
 DATE: 09 17 1995              CUMULATIVE TIME STEP:      17
 MODFLOW STRESS PERIOD     61     CURRENT TIME STEP:    1813     ITERATIONS:       6

 -----------------------------------------------------------------------------------

   CUMULATIVE VOLUMES               L**3   RATES FOR THIS TIME STEP           L**3/T
   ------------------                      ------------------------

                                     IN                                         IN
                                     --                                         --
        PRECIPITATION =        1.3351D+08          PRECIPITATION =                  
           STREAMFLOW =                               STREAMFLOW =                  
     GW BOUNDARY FLOW =           5264.94       GW BOUNDARY FLOW =              3.28


                                    OUT                                        OUT
                                    ---                                        ---
   EVAPOTRANSPIRATION =        7.6163D+07     EVAPOTRANSPIRATION =          57652.29
           STREAMFLOW =        2.4432D+08             STREAMFLOW =          11521.92
     GW BOUNDARY FLOW =          53245.71       GW BOUNDARY FLOW =             25.09

   INFLOWS - OUTFLOWS =       -1.8702D+08     INFLOWS - OUTFLOWS =         -69196.02
             --------                                   --------

 TOTAL STORAGE CHANGE =       -1.1345D+07         STORAGE CHANGE =         -69147.89
       --------------                             --------------
         LAND SURFACE =         177960.29           LAND SURFACE =          -9479.42
            SOIL ZONE =        1641362.10              SOIL ZONE =         -43298.53
     UNSATURATED ZONE =        -104616.78       UNSATURATED ZONE =          -9672.40
       SATURATED ZONE =       -1.3059D+07         SATURATED ZONE =          -6697.54

 OVERALL BUDGET ERROR =       -1.7567D+08           BUDGET ERROR =            -48.13

  ***WARNING, CUMULATIVE VOLUME OFF > 5%

  PERCENT DISCREPANCY =            -75.50    PERCENT DISCREPANCY =             -0.07



1
 SUMMARY VOLUMETRIC BUDGET FOR GSFLOW 
 DATE: 09 24 1995              CUMULATIVE TIME STEP:      24
 MODFLOW STRESS PERIOD     61     CURRENT TIME STEP:    1820     ITERATIONS:       7

 -----------------------------------------------------------------------------------

   CUMULATIVE VOLUMES               L**3   RATES FOR THIS TIME STEP           L**3/T
   ------------------                      ------------------------

                                     IN                                         IN
                                     --                                         --
        PRECIPITATION =        1.3351D+08          PRECIPITATION =                  
           STREAMFLOW =                               STREAMFLOW =                  
     GW BOUNDARY FLOW =           5288.35       GW BOUNDARY FLOW =              3.39


                                    OUT                                        OUT
                                    ---                                        ---
   EVAPOTRANSPIRATION =        7.6523D+07     EVAPOTRANSPIRATION =          37306.66
           STREAMFLOW =        2.4440D+08             STREAMFLOW =          11192.24
     GW BOUNDARY FLOW =          53421.15       GW BOUNDARY FLOW =             25.05

   INFLOWS - OUTFLOWS =       -1.8746D+08     INFLOWS - OUTFLOWS =         -48520.57
             --------                                   --------

 TOTAL STORAGE CHANGE =       -1.1783D+07         STORAGE CHANGE =         -48494.05
       --------------                             --------------
         LAND SURFACE =         123669.62           LAND SURFACE =          -5454.35
            SOIL ZONE =        1369020.36              SOIL ZONE =         -28389.46
     UNSATURATED ZONE =        -168268.87       UNSATURATED ZONE =          -8622.20
       SATURATED ZONE =       -1.3107D+07         SATURATED ZONE =          -6028.03

 OVERALL BUDGET ERROR =       -1.7568D+08           BUDGET ERROR =            -26.52

  ***WARNING, CUMULATIVE VOLUME OFF > 5%

  PERCENT DISCREPANCY =            -75.35    PERCENT DISCREPANCY =             -0.05



1
 SUMMARY VOLUMETRIC BUDGET FOR GSFLOW 
 DATE: 10 01 1995              CUMULATIVE TIME STEP:       1
 MODFLOW STRESS PERIOD     62     CURRENT TIME STEP:    1827     ITERATIONS:       6

 -----------------------------------------------------------------------------------

   CUMULATIVE VOLUMES               L**3   RATES FOR THIS TIME STEP           L**3/T
   ------------------                      ------------------------

                                     IN                                         IN
                                     --                                         --
        PRECIPITATION =        1.3351D+08          PRECIPITATION =                  
           STREAMFLOW =                               STREAMFLOW =                  
     GW BOUNDARY FLOW =           5312.45       GW BOUNDARY FLOW =              3.48


                                    OUT                                        OUT
                                    ---                                        ---
   EVAPOTRANSPIRATION =        7.6672D+07     EVAPOTRANSPIRATION =          22390.94
           STREAMFLOW =        2.4447D+08             STREAMFLOW =          11153.60
     GW BOUNDARY FLOW =          53596.40       GW BOUNDARY FLOW =             25.02

   INFLOWS - OUTFLOWS =       -1.8769D+08     INFLOWS - OUTFLOWS =         -33566.09
             --------                                   --------

 TOTAL STORAGE CHANGE =       -1.2011D+07         STORAGE CHANGE =         -33591.17
       --------------                             --------------
         LAND SURFACE =         100770.58           LAND SURFACE =          -2835.89
            SOIL ZONE =        1255238.36              SOIL ZONE =         -17402.06
     UNSATURATED ZONE =        -223674.83       UNSATURATED ZONE =          -7739.42
       SATURATED ZONE =       -1.3144D+07         SATURATED ZONE =          -5613.81

 OVERALL BUDGET ERROR =       -1.7568D+08           BUDGET ERROR =             25.08

  ***WARNING, CUMULATIVE VOLUME OFF > 5%

  PERCENT DISCREPANCY =            -75.28    PERCENT DISCREPANCY =              0.07



1
 SUMMARY VOLUMETRIC BUDGET FOR GSFLOW 
 DATE: 10 08 1995              CUMULATIVE TIME STEP:       8
 MODFLOW STRESS PERIOD     62     CURRENT TIME STEP:    1834     ITERATIONS:       6

 -----------------------------------------------------------------------------------

   CUMULATIVE VOLUMES               L**3   RATES FOR THIS TIME STEP           L**3/T
   ------------------                      ------------------------

                                     IN                                         IN
                                     --                                         --
        PRECIPITATION =        1.3351D+08          PRECIPITATION =                  
           STREAMFLOW =                               STREAMFLOW =                  
     GW BOUNDARY FLOW =           5337.20       GW BOUNDARY FLOW =              3.58


                                    OUT                                        OUT
                                    ---                                        ---
   EVAPOTRANSPIRATION =        7.6846D+07     EVAPOTRANSPIRATION =          21831.35
           STREAMFLOW =        2.4455D+08             STREAMFLOW =          10892.98
     GW BOUNDARY FLOW =          53771.45       GW BOUNDARY FLOW =             25.00

   INFLOWS - OUTFLOWS =       -1.8794D+08     INFLOWS - OUTFLOWS =         -32745.74
             --------                                   --------

 TOTAL STORAGE CHANGE =       -1.2262D+07         STORAGE CHANGE =         -32724.26
       --------------                             --------------
         LAND SURFACE =          80522.28           LAND SURFACE =          -2457.43
            SOIL ZONE =        1122453.25              SOIL ZONE =         -16456.61
     UNSATURATED ZONE =        -277790.34       UNSATURATED ZONE =          -7752.28
       SATURATED ZONE =       -1.3187D+07         SATURATED ZONE =          -6057.92

 OVERALL BUDGET ERROR =       -1.7568D+08           BUDGET ERROR =            -21.48

  ***WARNING, CUMULATIVE VOLUME OFF > 5%

  PERCENT DISCREPANCY =            -75.20    PERCENT DISCREPANCY =             -0.07



1
 SUMMARY VOLUMETRIC BUDGET FOR GSFLOW 
 DATE: 10 15 1995              CUMULATIVE TIME STEP:      15
 MODFLOW STRESS PERIOD     62     CURRENT TIME STEP:    1841     ITERATIONS:       5

 -----------------------------------------------------------------------------------

   CUMULATIVE VOLUMES               L**3   RATES FOR THIS TIME STEP           L**3/T
   ------------------                      ------------------------

                                     IN                                         IN
                                     --                                         --
        PRECIPITATION =        1.3351D+08          PRECIPITATION =                  
           STREAMFLOW =                               STREAMFLOW =                  
     GW BOUNDARY FLOW =           5362.72       GW BOUNDARY FLOW =              3.69


                                    OUT                                        OUT
                                    ---                                        ---
   EVAPOTRANSPIRATION =        7.7017D+07     EVAPOTRANSPIRATION =          27420.08
           STREAMFLOW =        2.4463D+08             STREAMFLOW =          10553.49
     GW BOUNDARY FLOW =          53946.31       GW BOUNDARY FLOW =             24.97

   INFLOWS - OUTFLOWS =       -1.8818D+08     INFLOWS - OUTFLOWS =         -37994.84
             --------                                   --------

 TOTAL STORAGE CHANGE =       -1.2508D+07         STORAGE CHANGE =         -37887.13
       --------------                             --------------
         LAND SURFACE =          62088.09           LAND SURFACE =          -2638.24
            SOIL ZONE =         996514.84              SOIL ZONE =         -19950.33
     UNSATURATED ZONE =        -331662.65       UNSATURATED ZONE =          -7812.51
       SATURATED ZONE =       -1.3235D+07         SATURATED ZONE =          -7486.04

 OVERALL BUDGET ERROR =       -1.7568D+08           BUDGET ERROR =           -107.71

  ***WARNING, CUMULATIVE VOLUME OFF > 5%

  PERCENT DISCREPANCY =            -75.12    PERCENT DISCREPANCY =             -0.28



1
 SUMMARY VOLUMETRIC BUDGET FOR GSFLOW 
 DATE: 10 22 1995              CUMULATIVE TIME STEP:      22
 MODFLOW STRESS PERIOD     62     CURRENT TIME STEP:    1848     ITERATIONS:       6

 -----------------------------------------------------------------------------------

   CUMULATIVE VOLUMES               L**3   RATES FOR THIS TIME STEP           L**3/T
   ------------------                      ------------------------

                                     IN                                         IN
                                     --                                         --
        PRECIPITATION =        1.3351D+08          PRECIPITATION =                  
           STREAMFLOW =                               STREAMFLOW =                  
     GW BOUNDARY FLOW =           5388.96       GW BOUNDARY FLOW =              3.79


                                    OUT                                        OUT
                                    ---                                        ---
   EVAPOTRANSPIRATION =        7.7172D+07     EVAPOTRANSPIRATION =           6476.42
           STREAMFLOW =        2.4470D+08             STREAMFLOW =          10727.69
     GW BOUNDARY FLOW =          54121.00       GW BOUNDARY FLOW =             24.95

   INFLOWS - OUTFLOWS =       -1.8841D+08     INFLOWS - OUTFLOWS =         -17225.27
             --------                                   --------

 TOTAL STORAGE CHANGE =       -1.2735D+07         STORAGE CHANGE =         -17204.84
       --------------                             --------------
         LAND SURFACE =          48265.31           LAND SURFACE =           -654.57
            SOIL ZONE =         885118.38              SOIL ZONE =          -4857.33
     UNSATURATED ZONE =        -384301.43       UNSATURATED ZONE =          -6660.42
       SATURATED ZONE =       -1.3284D+07         SATURATED ZONE =          -5032.51

 OVERALL BUDGET ERROR =       -1.7568D+08           BUDGET ERROR =            -20.44

  ***WARNING, CUMULATIVE VOLUME OFF > 5%

  PERCENT DISCREPANCY =            -75.05    PERCENT DISCREPANCY =             -0.12



1
 SUMMARY VOLUMETRIC BUDGET FOR GSFLOW 
 DATE: 10 29 1995              CUMULATIVE TIME STEP:      29
 MODFLOW STRESS PERIOD     62     CURRENT TIME STEP:    1855     ITERATIONS:      14

 -----------------------------------------------------------------------------------

   CUMULATIVE VOLUMES               L**3   RATES FOR THIS TIME STEP           L**3/T
   ------------------                      ------------------------

                                     IN                                         IN
                                     --                                         --
        PRECIPITATION =        1.3351D+08          PRECIPITATION =                  
           STREAMFLOW =                               STREAMFLOW =                  
     GW BOUNDARY FLOW =           5415.86       GW BOUNDARY FLOW =              3.88


                                    OUT                                        OUT
                                    ---                                        ---
   EVAPOTRANSPIRATION =        7.7266D+07     EVAPOTRANSPIRATION =          16442.01
           STREAMFLOW =        2.4477D+08             STREAMFLOW =          10347.78
     GW BOUNDARY FLOW =          54295.58       GW BOUNDARY FLOW =             24.93

   INFLOWS - OUTFLOWS =       -1.8858D+08     INFLOWS - OUTFLOWS =         -26810.84
             --------                                   --------

 TOTAL STORAGE CHANGE =       -1.2903D+07         STORAGE CHANGE =         -26697.82
       --------------                             --------------
         LAND SURFACE =          42120.00           LAND SURFACE =          -1365.71
            SOIL ZONE =         817026.80              SOIL ZONE =         -11352.25
     UNSATURATED ZONE =        -431883.56       UNSATURATED ZONE =          -6877.86
       SATURATED ZONE =       -1.3330D+07         SATURATED ZONE =          -7102.01

 OVERALL BUDGET ERROR =       -1.7568D+08           BUDGET ERROR =           -113.02

  ***WARNING, CUMULATIVE VOLUME OFF > 5%

  PERCENT DISCREPANCY =            -74.99    PERCENT DISCREPANCY =             -0.42



