1
 SUMMARY VOLUMETRIC BUDGET FOR GSFLOW 
 DATE: 10 07 1990              CUMULATIVE TIME STEP:       7
 MODFLOW STRESS PERIOD      2     CURRENT TIME STEP:       7     ITERATIONS:       7

 -----------------------------------------------------------------------------------

   CUMULATIVE VOLUMES               L**3   RATES FOR THIS TIME STEP           L**3/T
   ------------------                      ------------------------

                                     IN                                         IN
                                     --                                         --
        PRECIPITATION =                            PRECIPITATION =                  
           STREAMFLOW =                               STREAMFLOW =                  
     GW BOUNDARY FLOW =                         GW BOUNDARY FLOW =                  


                                    OUT                                        OUT
                                    ---                                        ---
   EVAPOTRANSPIRATION =         384997.90     EVAPOTRANSPIRATION =          11800.14
           STREAMFLOW =          46311.09             STREAMFLOW =           8184.28
     GW BOUNDARY FLOW =            252.80       GW BOUNDARY FLOW =             36.30

   INFLOWS - OUTFLOWS =        -431561.78     INFLOWS - OUTFLOWS =         -20020.73
             --------                                   --------

 TOTAL STORAGE CHANGE =        -430092.43         STORAGE CHANGE =         -19994.04
       --------------                             --------------
         LAND SURFACE =                             LAND SURFACE =                  
            SOIL ZONE =         -33647.94              SOIL ZONE =           -949.06
     UNSATURATED ZONE =        -502271.26       UNSATURATED ZONE =         -33315.93
       SATURATED ZONE =         105826.77         SATURATED ZONE =          14270.95

 OVERALL BUDGET ERROR =          -1469.35           BUDGET ERROR =            -26.68


  PERCENT DISCREPANCY =             -0.34    PERCENT DISCREPANCY =             -0.13



1
 SUMMARY VOLUMETRIC BUDGET FOR GSFLOW 
 DATE: 10 14 1990              CUMULATIVE TIME STEP:      14
 MODFLOW STRESS PERIOD      2     CURRENT TIME STEP:      14     ITERATIONS:       6

 -----------------------------------------------------------------------------------

   CUMULATIVE VOLUMES               L**3   RATES FOR THIS TIME STEP           L**3/T
   ------------------                      ------------------------

                                     IN                                         IN
                                     --                                         --
        PRECIPITATION =                            PRECIPITATION =                  
           STREAMFLOW =                               STREAMFLOW =                  
     GW BOUNDARY FLOW =                         GW BOUNDARY FLOW =                  


                                    OUT                                        OUT
                                    ---                                        ---
   EVAPOTRANSPIRATION =         665193.76     EVAPOTRANSPIRATION =          42313.10
           STREAMFLOW =         101471.34             STREAMFLOW =           7477.71
     GW BOUNDARY FLOW =            506.65       GW BOUNDARY FLOW =             36.24

   INFLOWS - OUTFLOWS =        -767171.75     INFLOWS - OUTFLOWS =         -49827.05
             --------                                   --------

 TOTAL STORAGE CHANGE =        -765417.42         STORAGE CHANGE =         -49806.36
       --------------                             --------------
         LAND SURFACE =                             LAND SURFACE =                  
            SOIL ZONE =         -58651.68              SOIL ZONE =          -4416.62
     UNSATURATED ZONE =        -877077.56       UNSATURATED ZONE =         -52127.47
       SATURATED ZONE =         170311.81         SATURATED ZONE =           6737.73

 OVERALL BUDGET ERROR =          -1754.33           BUDGET ERROR =            -20.69


  PERCENT DISCREPANCY =             -0.23    PERCENT DISCREPANCY =             -0.04



1
 SUMMARY VOLUMETRIC BUDGET FOR GSFLOW 
 DATE: 10 21 1990              CUMULATIVE TIME STEP:      21
 MODFLOW STRESS PERIOD      2     CURRENT TIME STEP:      21     ITERATIONS:       6

 -----------------------------------------------------------------------------------

   CUMULATIVE VOLUMES               L**3   RATES FOR THIS TIME STEP           L**3/T
   ------------------                      ------------------------

                                     IN                                         IN
                                     --                                         --
        PRECIPITATION =         188432.87          PRECIPITATION =                  
           STREAMFLOW =                               STREAMFLOW =                  
     GW BOUNDARY FLOW =                         GW BOUNDARY FLOW =                  


                                    OUT                                        OUT
                                    ---                                        ---
   EVAPOTRANSPIRATION =         815444.65     EVAPOTRANSPIRATION =          41709.13
           STREAMFLOW =         164527.69             STREAMFLOW =          10159.31
     GW BOUNDARY FLOW =            760.84       GW BOUNDARY FLOW =             36.37

   INFLOWS - OUTFLOWS =        -792300.32     INFLOWS - OUTFLOWS =         -51904.82
             --------                                   --------

 TOTAL STORAGE CHANGE =        -790494.11         STORAGE CHANGE =         -51909.53
       --------------                             --------------
         LAND SURFACE =          18885.57           LAND SURFACE =         -43558.49
            SOIL ZONE =          48188.83              SOIL ZONE =           2053.01
     UNSATURATED ZONE =       -1090962.03       UNSATURATED ZONE =         -21361.65
       SATURATED ZONE =         233393.51         SATURATED ZONE =          10957.60

 OVERALL BUDGET ERROR =          -1806.21           BUDGET ERROR =              4.71


  PERCENT DISCREPANCY =             -0.18    PERCENT DISCREPANCY =              0.01



1
 SUMMARY VOLUMETRIC BUDGET FOR GSFLOW 
 DATE: 10 28 1990              CUMULATIVE TIME STEP:      28
 MODFLOW STRESS PERIOD      2     CURRENT TIME STEP:      28     ITERATIONS:       6

 -----------------------------------------------------------------------------------

   CUMULATIVE VOLUMES               L**3   RATES FOR THIS TIME STEP           L**3/T
   ------------------                      ------------------------

                                     IN                                         IN
                                     --                                         --
        PRECIPITATION =         188432.87          PRECIPITATION =                  
           STREAMFLOW =                               STREAMFLOW =                  
     GW BOUNDARY FLOW =                         GW BOUNDARY FLOW =                  


                                    OUT                                        OUT
                                    ---                                        ---
   EVAPOTRANSPIRATION =         943786.25     EVAPOTRANSPIRATION =          11825.75
           STREAMFLOW =         226198.14             STREAMFLOW =           8957.64
     GW BOUNDARY FLOW =           1014.04       GW BOUNDARY FLOW =             36.13

   INFLOWS - OUTFLOWS =        -982565.56     INFLOWS - OUTFLOWS =         -20819.51
             --------                                   --------

 TOTAL STORAGE CHANGE =        -980747.63         STORAGE CHANGE =         -20821.49
       --------------                             --------------
         LAND SURFACE =                             LAND SURFACE =                  
            SOIL ZONE =          19150.20              SOIL ZONE =          -3436.32
     UNSATURATED ZONE =       -1274636.50       UNSATURATED ZONE =         -23283.91
       SATURATED ZONE =         274738.67         SATURATED ZONE =           5898.74

 OVERALL BUDGET ERROR =          -1817.94           BUDGET ERROR =              1.98


  PERCENT DISCREPANCY =             -0.16    PERCENT DISCREPANCY =              0.01



1
 SUMMARY VOLUMETRIC BUDGET FOR GSFLOW 
 DATE: 11 04 1990              CUMULATIVE TIME STEP:       4
 MODFLOW STRESS PERIOD      3     CURRENT TIME STEP:      35     ITERATIONS:       6

 -----------------------------------------------------------------------------------

   CUMULATIVE VOLUMES               L**3   RATES FOR THIS TIME STEP           L**3/T
   ------------------                      ------------------------

                                     IN                                         IN
                                     --                                         --
        PRECIPITATION =         703113.06          PRECIPITATION =                  
           STREAMFLOW =                               STREAMFLOW =                  
     GW BOUNDARY FLOW =                         GW BOUNDARY FLOW =                  


                                    OUT                                        OUT
                                    ---                                        ---
   EVAPOTRANSPIRATION =        1004361.12     EVAPOTRANSPIRATION =          26280.47
           STREAMFLOW =         296575.66             STREAMFLOW =          10532.42
     GW BOUNDARY FLOW =           1267.08       GW BOUNDARY FLOW =             36.14

   INFLOWS - OUTFLOWS =        -599090.80     INFLOWS - OUTFLOWS =         -36849.02
             --------                                   --------

 TOTAL STORAGE CHANGE =        -597294.33         STORAGE CHANGE =         -36853.70
       --------------                             --------------
         LAND SURFACE =         132159.65           LAND SURFACE =        -160480.33
            SOIL ZONE =         356557.31              SOIL ZONE =         134353.49
     UNSATURATED ZONE =       -1420410.75       UNSATURATED ZONE =         -20102.65
       SATURATED ZONE =         334399.47         SATURATED ZONE =           9375.79

 OVERALL BUDGET ERROR =          -1796.47           BUDGET ERROR =              4.68


  PERCENT DISCREPANCY =             -0.14    PERCENT DISCREPANCY =              0.01



1
 SUMMARY VOLUMETRIC BUDGET FOR GSFLOW 
 DATE: 11 11 1990              CUMULATIVE TIME STEP:      11
 MODFLOW STRESS PERIOD      3     CURRENT TIME STEP:      42     ITERATIONS:       6

 -----------------------------------------------------------------------------------

   CUMULATIVE VOLUMES               L**3   RATES FOR THIS TIME STEP           L**3/T
   ------------------                      ------------------------

                                     IN                                         IN
                                     --                                         --
        PRECIPITATION =         703113.06          PRECIPITATION =                  
           STREAMFLOW =                               STREAMFLOW =                  
     GW BOUNDARY FLOW =                         GW BOUNDARY FLOW =                  


                                    OUT                                        OUT
                                    ---                                        ---
   EVAPOTRANSPIRATION =        1081513.94     EVAPOTRANSPIRATION =          12129.05
           STREAMFLOW =         367325.53             STREAMFLOW =           9629.51
     GW BOUNDARY FLOW =           1519.18       GW BOUNDARY FLOW =             35.93

   INFLOWS - OUTFLOWS =        -747245.59     INFLOWS - OUTFLOWS =         -21794.48
             --------                                   --------

 TOTAL STORAGE CHANGE =        -745470.09         STORAGE CHANGE =         -21797.17
       --------------                             --------------
         LAND SURFACE =            595.09           LAND SURFACE =          -1416.54
            SOIL ZONE =         429482.37              SOIL ZONE =          -5401.63
     UNSATURATED ZONE =       -1559899.31       UNSATURATED ZONE =         -19902.53
       SATURATED ZONE =         384351.76         SATURATED ZONE =           4923.53

 OVERALL BUDGET ERROR =          -1775.50           BUDGET ERROR =              2.69


  PERCENT DISCREPANCY =             -0.12    PERCENT DISCREPANCY =              0.01



1
 SUMMARY VOLUMETRIC BUDGET FOR GSFLOW 
 DATE: 11 18 1990              CUMULATIVE TIME STEP:      18
 MODFLOW STRESS PERIOD      3     CURRENT TIME STEP:      49     ITERATIONS:       6

 -----------------------------------------------------------------------------------

   CUMULATIVE VOLUMES               L**3   RATES FOR THIS TIME STEP           L**3/T
   ------------------                      ------------------------

                                     IN                                         IN
                                     --                                         --
        PRECIPITATION =         747883.35          PRECIPITATION =                  
           STREAMFLOW =                               STREAMFLOW =                  
     GW BOUNDARY FLOW =                         GW BOUNDARY FLOW =                  


                                    OUT                                        OUT
                                    ---                                        ---
   EVAPOTRANSPIRATION =        1153918.39     EVAPOTRANSPIRATION =           5054.35
           STREAMFLOW =         438900.33             STREAMFLOW =          10652.83
     GW BOUNDARY FLOW =           1770.49       GW BOUNDARY FLOW =             35.88

   INFLOWS - OUTFLOWS =        -846705.86     INFLOWS - OUTFLOWS =         -15743.07
             --------                                   --------

 TOTAL STORAGE CHANGE =        -844946.10         STORAGE CHANGE =         -15746.20
       --------------                             --------------
         LAND SURFACE =           7868.08           LAND SURFACE =          -3691.47
            SOIL ZONE =         411951.55              SOIL ZONE =           -677.81
     UNSATURATED ZONE =       -1693395.30       UNSATURATED ZONE =         -18649.76
       SATURATED ZONE =         428629.58         SATURATED ZONE =           7272.84

 OVERALL BUDGET ERROR =          -1759.76           BUDGET ERROR =              3.14


  PERCENT DISCREPANCY =             -0.11    PERCENT DISCREPANCY =              0.02



1
 SUMMARY VOLUMETRIC BUDGET FOR GSFLOW 
 DATE: 11 25 1990              CUMULATIVE TIME STEP:      25
 MODFLOW STRESS PERIOD      3     CURRENT TIME STEP:      56     ITERATIONS:       6

 -----------------------------------------------------------------------------------

   CUMULATIVE VOLUMES               L**3   RATES FOR THIS TIME STEP           L**3/T
   ------------------                      ------------------------

                                     IN                                         IN
                                     --                                         --
        PRECIPITATION =        1009043.38          PRECIPITATION =         186542.88
           STREAMFLOW =                               STREAMFLOW =                  
     GW BOUNDARY FLOW =                         GW BOUNDARY FLOW =                  


                                    OUT                                        OUT
                                    ---                                        ---
   EVAPOTRANSPIRATION =        1214346.66     EVAPOTRANSPIRATION =           3757.66
           STREAMFLOW =         514654.00             STREAMFLOW =          10733.77
     GW BOUNDARY FLOW =           2021.43       GW BOUNDARY FLOW =             35.79

   INFLOWS - OUTFLOWS =        -721978.71     INFLOWS - OUTFLOWS =         172015.65
             --------                                   --------

 TOTAL STORAGE CHANGE =        -720237.83         STORAGE CHANGE =         172013.42
       --------------                             --------------
         LAND SURFACE =          86180.68           LAND SURFACE =          69567.13
            SOIL ZONE =         536738.93              SOIL ZONE =         114159.33
     UNSATURATED ZONE =       -1821360.15       UNSATURATED ZONE =         -17971.80
       SATURATED ZONE =         478202.71         SATURATED ZONE =           6258.75

 OVERALL BUDGET ERROR =          -1740.87           BUDGET ERROR =              2.24


  PERCENT DISCREPANCY =             -0.10    PERCENT DISCREPANCY =              0.00



1
 SUMMARY VOLUMETRIC BUDGET FOR GSFLOW 
 DATE: 12 02 1990              CUMULATIVE TIME STEP:       2
 MODFLOW STRESS PERIOD      4     CURRENT TIME STEP:      63     ITERATIONS:       6

 -----------------------------------------------------------------------------------

   CUMULATIVE VOLUMES               L**3   RATES FOR THIS TIME STEP           L**3/T
   ------------------                      ------------------------

                                     IN                                         IN
                                     --                                         --
        PRECIPITATION =        1449284.55          PRECIPITATION =                  
           STREAMFLOW =                               STREAMFLOW =                  
     GW BOUNDARY FLOW =                         GW BOUNDARY FLOW =                  


                                    OUT                                        OUT
                                    ---                                        ---
   EVAPOTRANSPIRATION =        1220842.32     EVAPOTRANSPIRATION =            234.69
           STREAMFLOW =         591584.53             STREAMFLOW =          11040.13
     GW BOUNDARY FLOW =           2271.91       GW BOUNDARY FLOW =             35.77

   INFLOWS - OUTFLOWS =        -365414.22     INFLOWS - OUTFLOWS =         -11310.58
             --------                                   --------

 TOTAL STORAGE CHANGE =        -363688.72         STORAGE CHANGE =         -11312.52
       --------------                             --------------
         LAND SURFACE =         486845.62           LAND SURFACE =           -339.04
            SOIL ZONE =         570719.27              SOIL ZONE =            234.57
     UNSATURATED ZONE =       -1944547.10       UNSATURATED ZONE =         -17301.94
       SATURATED ZONE =         523293.50         SATURATED ZONE =           6093.89

 OVERALL BUDGET ERROR =          -1725.49           BUDGET ERROR =              1.94


  PERCENT DISCREPANCY =             -0.10    PERCENT DISCREPANCY =              0.02



1
 SUMMARY VOLUMETRIC BUDGET FOR GSFLOW 
 DATE: 12 09 1990              CUMULATIVE TIME STEP:       9
 MODFLOW STRESS PERIOD      4     CURRENT TIME STEP:      70     ITERATIONS:       6

 -----------------------------------------------------------------------------------

   CUMULATIVE VOLUMES               L**3   RATES FOR THIS TIME STEP           L**3/T
   ------------------                      ------------------------

                                     IN                                         IN
                                     --                                         --
        PRECIPITATION =        1449284.55          PRECIPITATION =                  
           STREAMFLOW =                               STREAMFLOW =                  
     GW BOUNDARY FLOW =                         GW BOUNDARY FLOW =                  


                                    OUT                                        OUT
                                    ---                                        ---
   EVAPOTRANSPIRATION =        1296678.27     EVAPOTRANSPIRATION =          13848.59
           STREAMFLOW =         668515.89             STREAMFLOW =          10750.84
     GW BOUNDARY FLOW =           2521.86       GW BOUNDARY FLOW =             35.64

   INFLOWS - OUTFLOWS =        -518431.46     INFLOWS - OUTFLOWS =         -24635.07
             --------                                   --------

 TOTAL STORAGE CHANGE =        -516716.28         STORAGE CHANGE =         -24635.85
       --------------                             --------------
         LAND SURFACE =          67215.40           LAND SURFACE =         -45889.70
            SOIL ZONE =         918830.82              SOIL ZONE =          33773.74
     UNSATURATED ZONE =       -2062708.28       UNSATURATED ZONE =         -16523.32
       SATURATED ZONE =         559945.77         SATURATED ZONE =           4003.42

 OVERALL BUDGET ERROR =          -1715.18           BUDGET ERROR =              0.78


  PERCENT DISCREPANCY =             -0.09    PERCENT DISCREPANCY =              0.00



1
 SUMMARY VOLUMETRIC BUDGET FOR GSFLOW 
 DATE: 12 16 1990              CUMULATIVE TIME STEP:      16
 MODFLOW STRESS PERIOD      4     CURRENT TIME STEP:      77     ITERATIONS:       5

 -----------------------------------------------------------------------------------

   CUMULATIVE VOLUMES               L**3   RATES FOR THIS TIME STEP           L**3/T
   ------------------                      ------------------------

                                     IN                                         IN
                                     --                                         --
        PRECIPITATION =        1804962.84          PRECIPITATION =                  
           STREAMFLOW =                               STREAMFLOW =                  
     GW BOUNDARY FLOW =                         GW BOUNDARY FLOW =                  


                                    OUT                                        OUT
                                    ---                                        ---
   EVAPOTRANSPIRATION =        1324955.14     EVAPOTRANSPIRATION =                  
           STREAMFLOW =         746985.05             STREAMFLOW =          11395.59
     GW BOUNDARY FLOW =           2771.24       GW BOUNDARY FLOW =             35.61

   INFLOWS - OUTFLOWS =        -269748.59     INFLOWS - OUTFLOWS =         -11431.19
             --------                                   --------

 TOTAL STORAGE CHANGE =        -268043.92         STORAGE CHANGE =         -11432.15
       --------------                             --------------
         LAND SURFACE =         252566.26           LAND SURFACE =                  
            SOIL ZONE =        1065041.45              SOIL ZONE =            148.67
     UNSATURATED ZONE =       -2176325.43       UNSATURATED ZONE =         -15968.64
       SATURATED ZONE =         590673.79         SATURATED ZONE =           4387.82

 OVERALL BUDGET ERROR =          -1704.67           BUDGET ERROR =              0.96


  PERCENT DISCREPANCY =             -0.08    PERCENT DISCREPANCY =              0.01



1
 SUMMARY VOLUMETRIC BUDGET FOR GSFLOW 
 DATE: 12 23 1990              CUMULATIVE TIME STEP:      23
 MODFLOW STRESS PERIOD      4     CURRENT TIME STEP:      84     ITERATIONS:       6

 -----------------------------------------------------------------------------------

   CUMULATIVE VOLUMES               L**3   RATES FOR THIS TIME STEP           L**3/T
   ------------------                      ------------------------

                                     IN                                         IN
                                     --                                         --
        PRECIPITATION =        2276236.55          PRECIPITATION =                  
           STREAMFLOW =                               STREAMFLOW =                  
     GW BOUNDARY FLOW =              0.08       GW BOUNDARY FLOW =              0.04


                                    OUT                                        OUT
                                    ---                                        ---
   EVAPOTRANSPIRATION =        1326012.74     EVAPOTRANSPIRATION =                  
           STREAMFLOW =         827180.42             STREAMFLOW =          11495.92
     GW BOUNDARY FLOW =           3020.26       GW BOUNDARY FLOW =             35.57

   INFLOWS - OUTFLOWS =         120023.21     INFLOWS - OUTFLOWS =         -11531.45
             --------                                   --------

 TOTAL STORAGE CHANGE =         121726.80         STORAGE CHANGE =         -11531.30
       --------------                             --------------
         LAND SURFACE =         722784.33           LAND SURFACE =                  
            SOIL ZONE =        1066127.16              SOIL ZONE =            158.79
     UNSATURATED ZONE =       -2285761.40       UNSATURATED ZONE =         -15387.84
       SATURATED ZONE =         618576.71         SATURATED ZONE =           3697.75

 OVERALL BUDGET ERROR =          -1703.59           BUDGET ERROR =             -0.15


  PERCENT DISCREPANCY =             -0.07    PERCENT DISCREPANCY =             -0.00



1
 SUMMARY VOLUMETRIC BUDGET FOR GSFLOW 
 DATE: 12 30 1990              CUMULATIVE TIME STEP:      30
 MODFLOW STRESS PERIOD      4     CURRENT TIME STEP:      91     ITERATIONS:       5

 -----------------------------------------------------------------------------------

   CUMULATIVE VOLUMES               L**3   RATES FOR THIS TIME STEP           L**3/T
   ------------------                      ------------------------

                                     IN                                         IN
                                     --                                         --
        PRECIPITATION =        2276236.55          PRECIPITATION =                  
           STREAMFLOW =                               STREAMFLOW =                  
     GW BOUNDARY FLOW =              0.77       GW BOUNDARY FLOW =              0.14


                                    OUT                                        OUT
                                    ---                                        ---
   EVAPOTRANSPIRATION =        1326580.25     EVAPOTRANSPIRATION =                  
           STREAMFLOW =         908049.76             STREAMFLOW =          11595.53
     GW BOUNDARY FLOW =           3269.36       GW BOUNDARY FLOW =             35.60

   INFLOWS - OUTFLOWS =          38337.96     INFLOWS - OUTFLOWS =         -11630.99
             --------                                   --------

 TOTAL STORAGE CHANGE =          40049.32         STORAGE CHANGE =         -11628.89
       --------------                             --------------
         LAND SURFACE =         722216.94           LAND SURFACE =                  
            SOIL ZONE =        1067283.06              SOIL ZONE =            170.39
     UNSATURATED ZONE =       -2391285.63       UNSATURATED ZONE =         -14845.60
       SATURATED ZONE =         641834.94         SATURATED ZONE =           3046.32

 OVERALL BUDGET ERROR =          -1711.36           BUDGET ERROR =             -2.09


  PERCENT DISCREPANCY =             -0.08    PERCENT DISCREPANCY =             -0.02



1
 SUMMARY VOLUMETRIC BUDGET FOR GSFLOW 
 DATE: 01 06 1991              CUMULATIVE TIME STEP:       6
 MODFLOW STRESS PERIOD      5     CURRENT TIME STEP:      98     ITERATIONS:       5

 -----------------------------------------------------------------------------------

   CUMULATIVE VOLUMES               L**3   RATES FOR THIS TIME STEP           L**3/T
   ------------------                      ------------------------

                                     IN                                         IN
                                     --                                         --
        PRECIPITATION =        2276236.55          PRECIPITATION =                  
           STREAMFLOW =                               STREAMFLOW =                  
     GW BOUNDARY FLOW =              2.09       GW BOUNDARY FLOW =              0.22


                                    OUT                                        OUT
                                    ---                                        ---
   EVAPOTRANSPIRATION =        1353581.22     EVAPOTRANSPIRATION =           3180.55
           STREAMFLOW =         989563.61             STREAMFLOW =          11676.92
     GW BOUNDARY FLOW =           3519.23       GW BOUNDARY FLOW =             35.75

   INFLOWS - OUTFLOWS =         -70425.42     INFLOWS - OUTFLOWS =         -14893.00
             --------                                   --------

 TOTAL STORAGE CHANGE =         -68691.66         STORAGE CHANGE =         -14888.89
       --------------                             --------------
         LAND SURFACE =         592099.75           LAND SURFACE =          -8106.31
            SOIL ZONE =        1171666.87              SOIL ZONE =           5108.26
     UNSATURATED ZONE =       -2492875.68       UNSATURATED ZONE =         -14283.10
       SATURATED ZONE =         660417.40         SATURATED ZONE =           2392.26

 OVERALL BUDGET ERROR =          -1733.76           BUDGET ERROR =             -4.11


  PERCENT DISCREPANCY =             -0.07    PERCENT DISCREPANCY =             -0.03



1
 SUMMARY VOLUMETRIC BUDGET FOR GSFLOW 
 DATE: 01 13 1991              CUMULATIVE TIME STEP:      13
 MODFLOW STRESS PERIOD      5     CURRENT TIME STEP:     105     ITERATIONS:       6

 -----------------------------------------------------------------------------------

   CUMULATIVE VOLUMES               L**3   RATES FOR THIS TIME STEP           L**3/T
   ------------------                      ------------------------

                                     IN                                         IN
                                     --                                         --
        PRECIPITATION =        2596386.94          PRECIPITATION =          10327.43
           STREAMFLOW =                               STREAMFLOW =                  
     GW BOUNDARY FLOW =              4.01       GW BOUNDARY FLOW =              0.31


                                    OUT                                        OUT
                                    ---                                        ---
   EVAPOTRANSPIRATION =        1420374.47     EVAPOTRANSPIRATION =          18633.96
           STREAMFLOW =        1071268.53             STREAMFLOW =          11587.66
     GW BOUNDARY FLOW =           3769.44       GW BOUNDARY FLOW =             35.73

   INFLOWS - OUTFLOWS =         100978.52     INFLOWS - OUTFLOWS =         -19929.61
             --------                                   --------

 TOTAL STORAGE CHANGE =         102742.67         STORAGE CHANGE =         -19926.71
       --------------                             --------------
         LAND SURFACE =         529885.03           LAND SURFACE =        -135264.70
            SOIL ZONE =        1489871.65              SOIL ZONE =         127943.83
     UNSATURATED ZONE =       -2590423.49       UNSATURATED ZONE =         -13730.34
       SATURATED ZONE =         673409.48         SATURATED ZONE =           1124.50

 OVERALL BUDGET ERROR =          -1764.15           BUDGET ERROR =             -2.89


  PERCENT DISCREPANCY =             -0.07    PERCENT DISCREPANCY =             -0.01



1
 SUMMARY VOLUMETRIC BUDGET FOR GSFLOW 
 DATE: 01 20 1991              CUMULATIVE TIME STEP:      20
 MODFLOW STRESS PERIOD      5     CURRENT TIME STEP:     112     ITERATIONS:       5

 -----------------------------------------------------------------------------------

   CUMULATIVE VOLUMES               L**3   RATES FOR THIS TIME STEP           L**3/T
   ------------------                      ------------------------

                                     IN                                         IN
                                     --                                         --
        PRECIPITATION =        2596386.94          PRECIPITATION =                  
           STREAMFLOW =                               STREAMFLOW =                  
     GW BOUNDARY FLOW =              6.54       GW BOUNDARY FLOW =              0.40


                                    OUT                                        OUT
                                    ---                                        ---
   EVAPOTRANSPIRATION =        1497506.34     EVAPOTRANSPIRATION =           2455.46
           STREAMFLOW =        1153526.15             STREAMFLOW =          11784.24
     GW BOUNDARY FLOW =           4019.67       GW BOUNDARY FLOW =             35.75

   INFLOWS - OUTFLOWS =         -58658.66     INFLOWS - OUTFLOWS =         -14275.04
             --------                                   --------

 TOTAL STORAGE CHANGE =         -56849.33         STORAGE CHANGE =         -14267.45
       --------------                             --------------
         LAND SURFACE =         356897.54           LAND SURFACE =           -433.81
            SOIL ZONE =        1587696.10              SOIL ZONE =          -1802.66
     UNSATURATED ZONE =       -2684100.70       UNSATURATED ZONE =         -13157.72
       SATURATED ZONE =         682657.72         SATURATED ZONE =           1126.73

 OVERALL BUDGET ERROR =          -1809.33           BUDGET ERROR =             -7.60


  PERCENT DISCREPANCY =             -0.07    PERCENT DISCREPANCY =             -0.05



1
 SUMMARY VOLUMETRIC BUDGET FOR GSFLOW 
 DATE: 01 27 1991              CUMULATIVE TIME STEP:      27
 MODFLOW STRESS PERIOD      5     CURRENT TIME STEP:     119     ITERATIONS:       5

 -----------------------------------------------------------------------------------

   CUMULATIVE VOLUMES               L**3   RATES FOR THIS TIME STEP           L**3/T
   ------------------                      ------------------------

                                     IN                                         IN
                                     --                                         --
        PRECIPITATION =        2596386.94          PRECIPITATION =                  
           STREAMFLOW =                               STREAMFLOW =                  
     GW BOUNDARY FLOW =              9.65       GW BOUNDARY FLOW =              0.48


                                    OUT                                        OUT
                                    ---                                        ---
   EVAPOTRANSPIRATION =        1523390.61     EVAPOTRANSPIRATION =           1704.54
           STREAMFLOW =        1236224.86             STREAMFLOW =          11846.91
     GW BOUNDARY FLOW =           4269.86       GW BOUNDARY FLOW =             35.74

   INFLOWS - OUTFLOWS =        -167488.73     INFLOWS - OUTFLOWS =         -13586.71
             --------                                   --------

 TOTAL STORAGE CHANGE =        -165620.05         STORAGE CHANGE =         -13577.85
       --------------                             --------------
         LAND SURFACE =         323033.01           LAND SURFACE =           -547.84
            SOIL ZONE =        1597413.26              SOIL ZONE =           -949.80
     UNSATURATED ZONE =       -2774272.71       UNSATURATED ZONE =         -12667.56
       SATURATED ZONE =         688206.39         SATURATED ZONE =            587.36

 OVERALL BUDGET ERROR =          -1868.68           BUDGET ERROR =             -8.86


  PERCENT DISCREPANCY =             -0.07    PERCENT DISCREPANCY =             -0.07



1
 SUMMARY VOLUMETRIC BUDGET FOR GSFLOW 
 DATE: 02 03 1991              CUMULATIVE TIME STEP:       3
 MODFLOW STRESS PERIOD      6     CURRENT TIME STEP:     126     ITERATIONS:       5

 -----------------------------------------------------------------------------------

   CUMULATIVE VOLUMES               L**3   RATES FOR THIS TIME STEP           L**3/T
   ------------------                      ------------------------

                                     IN                                         IN
                                     --                                         --
        PRECIPITATION =        3228422.31          PRECIPITATION =          30459.53
           STREAMFLOW =                               STREAMFLOW =                  
     GW BOUNDARY FLOW =             13.31       GW BOUNDARY FLOW =              0.55


                                    OUT                                        OUT
                                    ---                                        ---
   EVAPOTRANSPIRATION =        1630474.07     EVAPOTRANSPIRATION =          21417.61
           STREAMFLOW =        1319285.50             STREAMFLOW =          11891.97
     GW BOUNDARY FLOW =           4519.99       GW BOUNDARY FLOW =             35.73

   INFLOWS - OUTFLOWS =         274156.06     INFLOWS - OUTFLOWS =          -2885.22
             --------                                   --------

 TOTAL STORAGE CHANGE =         276093.66         STORAGE CHANGE =          -2874.85
       --------------                             --------------
         LAND SURFACE =         157683.43           LAND SURFACE =         -26376.35
            SOIL ZONE =        2290391.44              SOIL ZONE =          35776.94
     UNSATURATED ZONE =       -2861150.42       UNSATURATED ZONE =         -12199.29
       SATURATED ZONE =         689169.22         SATURATED ZONE =            -76.16

 OVERALL BUDGET ERROR =          -1937.60           BUDGET ERROR =            -10.36


  PERCENT DISCREPANCY =             -0.06    PERCENT DISCREPANCY =             -0.03



1
 SUMMARY VOLUMETRIC BUDGET FOR GSFLOW 
 DATE: 02 10 1991              CUMULATIVE TIME STEP:      10
 MODFLOW STRESS PERIOD      6     CURRENT TIME STEP:     133     ITERATIONS:       5

 -----------------------------------------------------------------------------------

   CUMULATIVE VOLUMES               L**3   RATES FOR THIS TIME STEP           L**3/T
   ------------------                      ------------------------

                                     IN                                         IN
                                     --                                         --
        PRECIPITATION =        3510173.01          PRECIPITATION =                  
           STREAMFLOW =                               STREAMFLOW =                  
     GW BOUNDARY FLOW =             17.48       GW BOUNDARY FLOW =              0.63


                                    OUT                                        OUT
                                    ---                                        ---
   EVAPOTRANSPIRATION =        1797891.80     EVAPOTRANSPIRATION =          25651.46
           STREAMFLOW =        1401358.71             STREAMFLOW =          11861.41
     GW BOUNDARY FLOW =           4769.97       GW BOUNDARY FLOW =             35.71

   INFLOWS - OUTFLOWS =         306170.02     INFLOWS - OUTFLOWS =         -37547.96
             --------                                   --------

 TOTAL STORAGE CHANGE =         308148.42         STORAGE CHANGE =         -37536.41
       --------------                             --------------
         LAND SURFACE =          75877.11           LAND SURFACE =          -8469.89
            SOIL ZONE =        2488461.66              SOIL ZONE =         -16904.15
     UNSATURATED ZONE =       -2944517.12       UNSATURATED ZONE =         -11727.52
       SATURATED ZONE =         688326.78         SATURATED ZONE =           -434.86

 OVERALL BUDGET ERROR =          -1978.40           BUDGET ERROR =            -11.55


  PERCENT DISCREPANCY =             -0.06    PERCENT DISCREPANCY =             -0.03



1
 SUMMARY VOLUMETRIC BUDGET FOR GSFLOW 
 DATE: 02 17 1991              CUMULATIVE TIME STEP:      17
 MODFLOW STRESS PERIOD      6     CURRENT TIME STEP:     140     ITERATIONS:       5

 -----------------------------------------------------------------------------------

   CUMULATIVE VOLUMES               L**3   RATES FOR THIS TIME STEP           L**3/T
   ------------------                      ------------------------

                                     IN                                         IN
                                     --                                         --
        PRECIPITATION =        3510173.01          PRECIPITATION =                  
           STREAMFLOW =                               STREAMFLOW =                  
     GW BOUNDARY FLOW =             22.16       GW BOUNDARY FLOW =              0.70


                                    OUT                                        OUT
                                    ---                                        ---
   EVAPOTRANSPIRATION =        2040926.72     EVAPOTRANSPIRATION =          23719.99
           STREAMFLOW =        1484662.09             STREAMFLOW =          11919.75
     GW BOUNDARY FLOW =           5019.86       GW BOUNDARY FLOW =             35.67

   INFLOWS - OUTFLOWS =         -20413.50     INFLOWS - OUTFLOWS =         -35674.72
             --------                                   --------

 TOTAL STORAGE CHANGE =         -18345.74         STORAGE CHANGE =         -35661.33
       --------------                             --------------
         LAND SURFACE =          17890.99           LAND SURFACE =          -1143.67
            SOIL ZONE =        2305087.52              SOIL ZONE =         -22417.87
     UNSATURATED ZONE =       -3024354.54       UNSATURATED ZONE =         -11119.29
       SATURATED ZONE =         683030.29         SATURATED ZONE =           -980.50

 OVERALL BUDGET ERROR =          -2067.76           BUDGET ERROR =            -13.39


  PERCENT DISCREPANCY =             -0.06    PERCENT DISCREPANCY =             -0.04



1
 SUMMARY VOLUMETRIC BUDGET FOR GSFLOW 
 DATE: 02 24 1991              CUMULATIVE TIME STEP:      24
 MODFLOW STRESS PERIOD      6     CURRENT TIME STEP:     147     ITERATIONS:       5

 -----------------------------------------------------------------------------------

   CUMULATIVE VOLUMES               L**3   RATES FOR THIS TIME STEP           L**3/T
   ------------------                      ------------------------

                                     IN                                         IN
                                     --                                         --
        PRECIPITATION =        3510173.01          PRECIPITATION =                  
           STREAMFLOW =                               STREAMFLOW =                  
     GW BOUNDARY FLOW =             27.30       GW BOUNDARY FLOW =              0.76


                                    OUT                                        OUT
                                    ---                                        ---
   EVAPOTRANSPIRATION =        2254610.03     EVAPOTRANSPIRATION =          21654.75
           STREAMFLOW =        1566946.47             STREAMFLOW =          11905.54
     GW BOUNDARY FLOW =           5268.86       GW BOUNDARY FLOW =             35.50

   INFLOWS - OUTFLOWS =        -316625.05     INFLOWS - OUTFLOWS =         -33595.02
             --------                                   --------

 TOTAL STORAGE CHANGE =        -314511.11         STORAGE CHANGE =         -33579.93
       --------------                             --------------
         LAND SURFACE =           7435.72           LAND SURFACE =           -217.69
            SOIL ZONE =        2103235.79              SOIL ZONE =         -21203.13
     UNSATURATED ZONE =       -3100544.50       UNSATURATED ZONE =         -10702.80
       SATURATED ZONE =         675361.88         SATURATED ZONE =          -1456.31

 OVERALL BUDGET ERROR =          -2113.93           BUDGET ERROR =            -15.09


  PERCENT DISCREPANCY =             -0.06    PERCENT DISCREPANCY =             -0.04



1
 SUMMARY VOLUMETRIC BUDGET FOR GSFLOW 
 DATE: 03 03 1991              CUMULATIVE TIME STEP:       3
 MODFLOW STRESS PERIOD      7     CURRENT TIME STEP:     154     ITERATIONS:       5

 -----------------------------------------------------------------------------------

   CUMULATIVE VOLUMES               L**3   RATES FOR THIS TIME STEP           L**3/T
   ------------------                      ------------------------

                                     IN                                         IN
                                     --                                         --
        PRECIPITATION =        6220189.63          PRECIPITATION =        1243187.24
           STREAMFLOW =                               STREAMFLOW =                  
     GW BOUNDARY FLOW =             32.90       GW BOUNDARY FLOW =              0.83


                                    OUT                                        OUT
                                    ---                                        ---
   EVAPOTRANSPIRATION =        2406758.15     EVAPOTRANSPIRATION =           8346.31
           STREAMFLOW =        1650010.92             STREAMFLOW =          11819.78
     GW BOUNDARY FLOW =           5516.69       GW BOUNDARY FLOW =             35.32

   INFLOWS - OUTFLOWS =        2157936.78     INFLOWS - OUTFLOWS =        1222986.66
             --------                                   --------

 TOTAL STORAGE CHANGE =        2160152.22         STORAGE CHANGE =        1223003.05
       --------------                             --------------
         LAND SURFACE =        2352423.56           LAND SURFACE =         893797.52
            SOIL ZONE =        2319948.86              SOIL ZONE =         341851.92
     UNSATURATED ZONE =       -3173716.13       UNSATURATED ZONE =         -10287.95
       SATURATED ZONE =         661495.93         SATURATED ZONE =          -2358.45

 OVERALL BUDGET ERROR =          -2215.44           BUDGET ERROR =            -16.38


  PERCENT DISCREPANCY =             -0.04    PERCENT DISCREPANCY =             -0.00



1
 SUMMARY VOLUMETRIC BUDGET FOR GSFLOW 
 DATE: 03 10 1991              CUMULATIVE TIME STEP:      10
 MODFLOW STRESS PERIOD      7     CURRENT TIME STEP:     161     ITERATIONS:       5

 -----------------------------------------------------------------------------------

   CUMULATIVE VOLUMES               L**3   RATES FOR THIS TIME STEP           L**3/T
   ------------------                      ------------------------

                                     IN                                         IN
                                     --                                         --
        PRECIPITATION =        8746030.42          PRECIPITATION =          32888.55
           STREAMFLOW =                               STREAMFLOW =                  
     GW BOUNDARY FLOW =             38.94       GW BOUNDARY FLOW =              0.89


                                    OUT                                        OUT
                                    ---                                        ---
   EVAPOTRANSPIRATION =        2470877.44     EVAPOTRANSPIRATION =           7390.88
           STREAMFLOW =        1759059.75             STREAMFLOW =          12555.86
     GW BOUNDARY FLOW =           5764.08       GW BOUNDARY FLOW =             35.23

   INFLOWS - OUTFLOWS =        4510368.09     INFLOWS - OUTFLOWS =          12907.46
             --------                                   --------

 TOTAL STORAGE CHANGE =        4512661.13         STORAGE CHANGE =          12925.48
       --------------                             --------------
         LAND SURFACE =        2489799.29           LAND SURFACE =         -20139.51
            SOIL ZONE =        4566865.14              SOIL ZONE =          36671.99
     UNSATURATED ZONE =       -3191273.64       UNSATURATED ZONE =          -1395.39
       SATURATED ZONE =         647270.34         SATURATED ZONE =          -2211.61

 OVERALL BUDGET ERROR =          -2293.03           BUDGET ERROR =            -18.02


  PERCENT DISCREPANCY =             -0.03    PERCENT DISCREPANCY =             -0.05



1
 SUMMARY VOLUMETRIC BUDGET FOR GSFLOW 
 DATE: 03 17 1991              CUMULATIVE TIME STEP:      17
 MODFLOW STRESS PERIOD      7     CURRENT TIME STEP:     168     ITERATIONS:       5

 -----------------------------------------------------------------------------------

   CUMULATIVE VOLUMES               L**3   RATES FOR THIS TIME STEP           L**3/T
   ------------------                      ------------------------

                                     IN                                         IN
                                     --                                         --
        PRECIPITATION =        9897129.71          PRECIPITATION =         157865.04
           STREAMFLOW =                               STREAMFLOW =                  
     GW BOUNDARY FLOW =             45.40       GW BOUNDARY FLOW =              0.95


                                    OUT                                        OUT
                                    ---                                        ---
   EVAPOTRANSPIRATION =        2494341.89     EVAPOTRANSPIRATION =           6885.30
           STREAMFLOW =        1848291.45             STREAMFLOW =          12804.95
     GW BOUNDARY FLOW =           6010.25       GW BOUNDARY FLOW =             35.11

   INFLOWS - OUTFLOWS =        5548531.53     INFLOWS - OUTFLOWS =         138140.64
             --------                                   --------

 TOTAL STORAGE CHANGE =        5550934.29         STORAGE CHANGE =         138159.84
       --------------                             --------------
         LAND SURFACE =        3617387.87           LAND SURFACE =         151296.14
            SOIL ZONE =        4504470.11              SOIL ZONE =          -8538.35
     UNSATURATED ZONE =       -3202713.69       UNSATURATED ZONE =          -2052.67
       SATURATED ZONE =         631789.99         SATURATED ZONE =          -2545.27

 OVERALL BUDGET ERROR =          -2402.76           BUDGET ERROR =            -19.20


  PERCENT DISCREPANCY =             -0.02    PERCENT DISCREPANCY =             -0.01



1
 SUMMARY VOLUMETRIC BUDGET FOR GSFLOW 
 DATE: 03 24 1991              CUMULATIVE TIME STEP:      24
 MODFLOW STRESS PERIOD      7     CURRENT TIME STEP:     175     ITERATIONS:       5

 -----------------------------------------------------------------------------------

   CUMULATIVE VOLUMES               L**3   RATES FOR THIS TIME STEP           L**3/T
   ------------------                      ------------------------

                                     IN                                         IN
                                     --                                         --
        PRECIPITATION =        1.1673D+07          PRECIPITATION =        1230031.83
           STREAMFLOW =                               STREAMFLOW =                  
     GW BOUNDARY FLOW =             52.27       GW BOUNDARY FLOW =              1.01


                                    OUT                                        OUT
                                    ---                                        ---
   EVAPOTRANSPIRATION =        2528979.24     EVAPOTRANSPIRATION =           4289.83
           STREAMFLOW =        1939508.24             STREAMFLOW =          13202.15
     GW BOUNDARY FLOW =           6255.55       GW BOUNDARY FLOW =             35.00

   INFLOWS - OUTFLOWS =        7198420.75     INFLOWS - OUTFLOWS =        1212505.86
             --------                                   --------

 TOTAL STORAGE CHANGE =        7200937.95         STORAGE CHANGE =        1212525.40
       --------------                             --------------
         LAND SURFACE =        5347521.52           LAND SURFACE =        1227877.70
            SOIL ZONE =        4457484.69              SOIL ZONE =         -10426.43
     UNSATURATED ZONE =       -3218237.54       UNSATURATED ZONE =          -2377.89
       SATURATED ZONE =         614169.28         SATURATED ZONE =          -2547.98

 OVERALL BUDGET ERROR =          -2517.20           BUDGET ERROR =            -19.54


  PERCENT DISCREPANCY =             -0.02    PERCENT DISCREPANCY =             -0.00



1
 SUMMARY VOLUMETRIC BUDGET FOR GSFLOW 
 DATE: 03 31 1991              CUMULATIVE TIME STEP:      31
 MODFLOW STRESS PERIOD      7     CURRENT TIME STEP:     182     ITERATIONS:       5

 -----------------------------------------------------------------------------------

   CUMULATIVE VOLUMES               L**3   RATES FOR THIS TIME STEP           L**3/T
   ------------------                      ------------------------

                                     IN                                         IN
                                     --                                         --
        PRECIPITATION =        1.2495D+07          PRECIPITATION =                  
           STREAMFLOW =                               STREAMFLOW =                  
     GW BOUNDARY FLOW =             59.54       GW BOUNDARY FLOW =              1.06


                                    OUT                                        OUT
                                    ---                                        ---
   EVAPOTRANSPIRATION =        2649998.65     EVAPOTRANSPIRATION =          47925.31
           STREAMFLOW =        2034645.72             STREAMFLOW =          14265.09
     GW BOUNDARY FLOW =           6500.16       GW BOUNDARY FLOW =             34.92

   INFLOWS - OUTFLOWS =        7804240.30     INFLOWS - OUTFLOWS =         -62224.26
             --------                                   --------

 TOTAL STORAGE CHANGE =        7806896.00         STORAGE CHANGE =         -62204.20
       --------------                             --------------
         LAND SURFACE =        5892155.22           LAND SURFACE =        -150773.77
            SOIL ZONE =        4552520.10              SOIL ZONE =          92352.41
     UNSATURATED ZONE =       -3233724.16       UNSATURATED ZONE =          -1167.48
       SATURATED ZONE =         595944.84         SATURATED ZONE =          -2615.36

 OVERALL BUDGET ERROR =          -2655.70           BUDGET ERROR =            -20.06


  PERCENT DISCREPANCY =             -0.02    PERCENT DISCREPANCY =             -0.03



1
 SUMMARY VOLUMETRIC BUDGET FOR GSFLOW 
 DATE: 04 07 1991              CUMULATIVE TIME STEP:       7
 MODFLOW STRESS PERIOD      8     CURRENT TIME STEP:     189     ITERATIONS:       6

 -----------------------------------------------------------------------------------

   CUMULATIVE VOLUMES               L**3   RATES FOR THIS TIME STEP           L**3/T
   ------------------                      ------------------------

                                     IN                                         IN
                                     --                                         --
        PRECIPITATION =        1.3018D+07          PRECIPITATION =                  
           STREAMFLOW =                               STREAMFLOW =                  
     GW BOUNDARY FLOW =             67.17       GW BOUNDARY FLOW =              1.11


                                    OUT                                        OUT
                                    ---                                        ---
   EVAPOTRANSPIRATION =        2957881.92     EVAPOTRANSPIRATION =          15898.60
           STREAMFLOW =        2265130.77             STREAMFLOW =          42835.11
     GW BOUNDARY FLOW =           6746.28       GW BOUNDARY FLOW =             35.32

   INFLOWS - OUTFLOWS =        7788044.95     INFLOWS - OUTFLOWS =         -58767.92
             --------                                   --------

 TOTAL STORAGE CHANGE =        7790786.73         STORAGE CHANGE =         -58759.36
       --------------                             --------------
         LAND SURFACE =        4252635.06           LAND SURFACE =         -72897.15
            SOIL ZONE =        6157213.84              SOIL ZONE =           4868.50
     UNSATURATED ZONE =       -3199017.52       UNSATURATED ZONE =          11056.89
       SATURATED ZONE =         579955.35         SATURATED ZONE =          -1787.60

 OVERALL BUDGET ERROR =          -2741.78           BUDGET ERROR =             -8.56


  PERCENT DISCREPANCY =             -0.02    PERCENT DISCREPANCY =             -0.01



1
 SUMMARY VOLUMETRIC BUDGET FOR GSFLOW 
 DATE: 04 14 1991              CUMULATIVE TIME STEP:      14
 MODFLOW STRESS PERIOD      8     CURRENT TIME STEP:     196     ITERATIONS:       7

 -----------------------------------------------------------------------------------

   CUMULATIVE VOLUMES               L**3   RATES FOR THIS TIME STEP           L**3/T
   ------------------                      ------------------------

                                     IN                                         IN
                                     --                                         --
        PRECIPITATION =        1.3018D+07          PRECIPITATION =                  
           STREAMFLOW =                               STREAMFLOW =                  
     GW BOUNDARY FLOW =             75.13       GW BOUNDARY FLOW =              1.16


                                    OUT                                        OUT
                                    ---                                        ---
   EVAPOTRANSPIRATION =        3141804.75     EVAPOTRANSPIRATION =          42060.22
           STREAMFLOW =        2693389.28             STREAMFLOW =          74279.73
     GW BOUNDARY FLOW =           6994.69       GW BOUNDARY FLOW =             35.60

   INFLOWS - OUTFLOWS =        7175623.16     INFLOWS - OUTFLOWS =        -116374.39
             --------                                   --------

 TOTAL STORAGE CHANGE =        7178398.61         STORAGE CHANGE =        -116371.46
       --------------                             --------------
         LAND SURFACE =        3592422.62           LAND SURFACE =        -191140.97
            SOIL ZONE =        6139766.66              SOIL ZONE =          65590.08
     UNSATURATED ZONE =       -3125188.09       UNSATURATED ZONE =          10083.78
       SATURATED ZONE =         571397.42         SATURATED ZONE =           -904.34

 OVERALL BUDGET ERROR =          -2775.45           BUDGET ERROR =             -2.93


  PERCENT DISCREPANCY =             -0.02    PERCENT DISCREPANCY =             -0.00



1
 SUMMARY VOLUMETRIC BUDGET FOR GSFLOW 
 DATE: 04 21 1991              CUMULATIVE TIME STEP:      21
 MODFLOW STRESS PERIOD      8     CURRENT TIME STEP:     203     ITERATIONS:       9

 -----------------------------------------------------------------------------------

   CUMULATIVE VOLUMES               L**3   RATES FOR THIS TIME STEP           L**3/T
   ------------------                      ------------------------

                                     IN                                         IN
                                     --                                         --
        PRECIPITATION =        1.3034D+07          PRECIPITATION =                  
           STREAMFLOW =                               STREAMFLOW =                  
     GW BOUNDARY FLOW =             83.40       GW BOUNDARY FLOW =              1.20


                                    OUT                                        OUT
                                    ---                                        ---
   EVAPOTRANSPIRATION =        3395425.75     EVAPOTRANSPIRATION =          46843.68
           STREAMFLOW =        3246796.34             STREAMFLOW =          91004.33
     GW BOUNDARY FLOW =           7243.77       GW BOUNDARY FLOW =             35.67

   INFLOWS - OUTFLOWS =        6384679.63     INFLOWS - OUTFLOWS =        -137882.48
             --------                                   --------

 TOTAL STORAGE CHANGE =        6387470.20         STORAGE CHANGE =        -137881.54
       --------------                             --------------
         LAND SURFACE =        2435067.05           LAND SURFACE =        -213918.49
            SOIL ZONE =        6436693.69              SOIL ZONE =          64411.29
     UNSATURATED ZONE =       -3051030.60       UNSATURATED ZONE =          12040.16
       SATURATED ZONE =         566740.06         SATURATED ZONE =           -414.50

 OVERALL BUDGET ERROR =          -2790.56           BUDGET ERROR =             -0.94


  PERCENT DISCREPANCY =             -0.02    PERCENT DISCREPANCY =             -0.00



1
 SUMMARY VOLUMETRIC BUDGET FOR GSFLOW 
 DATE: 04 28 1991              CUMULATIVE TIME STEP:      28
 MODFLOW STRESS PERIOD      8     CURRENT TIME STEP:     210     ITERATIONS:       7

 -----------------------------------------------------------------------------------

   CUMULATIVE VOLUMES               L**3   RATES FOR THIS TIME STEP           L**3/T
   ------------------                      ------------------------

                                     IN                                         IN
                                     --                                         --
        PRECIPITATION =        1.3303D+07          PRECIPITATION =                  
           STREAMFLOW =                               STREAMFLOW =                  
     GW BOUNDARY FLOW =             91.93       GW BOUNDARY FLOW =              1.24


                                    OUT                                        OUT
                                    ---                                        ---
   EVAPOTRANSPIRATION =        3663527.71     EVAPOTRANSPIRATION =          58070.50
           STREAMFLOW =        3895346.45             STREAMFLOW =          92226.48
     GW BOUNDARY FLOW =           7493.13       GW BOUNDARY FLOW =             35.57

   INFLOWS - OUTFLOWS =        5737155.14     INFLOWS - OUTFLOWS =        -150331.31
             --------                                   --------

 TOTAL STORAGE CHANGE =        5739958.84         STORAGE CHANGE =        -150330.10
       --------------                             --------------
         LAND SURFACE =        1696587.35           LAND SURFACE =        -133846.70
            SOIL ZONE =        6443672.26              SOIL ZONE =         -28135.42
     UNSATURATED ZONE =       -2967077.24       UNSATURATED ZONE =          11464.11
       SATURATED ZONE =         566776.48         SATURATED ZONE =            187.93

 OVERALL BUDGET ERROR =          -2803.70           BUDGET ERROR =             -1.22


  PERCENT DISCREPANCY =             -0.02    PERCENT DISCREPANCY =             -0.00



1
 SUMMARY VOLUMETRIC BUDGET FOR GSFLOW 
 DATE: 05 05 1991              CUMULATIVE TIME STEP:       5
 MODFLOW STRESS PERIOD      9     CURRENT TIME STEP:     217     ITERATIONS:       7

 -----------------------------------------------------------------------------------

   CUMULATIVE VOLUMES               L**3   RATES FOR THIS TIME STEP           L**3/T
   ------------------                      ------------------------

                                     IN                                         IN
                                     --                                         --
        PRECIPITATION =        1.3510D+07          PRECIPITATION =                  
           STREAMFLOW =                               STREAMFLOW =                  
     GW BOUNDARY FLOW =            100.73       GW BOUNDARY FLOW =              1.27


                                    OUT                                        OUT
                                    ---                                        ---
   EVAPOTRANSPIRATION =        4040285.47     EVAPOTRANSPIRATION =          90182.26
           STREAMFLOW =        4467146.86             STREAMFLOW =          83084.80
     GW BOUNDARY FLOW =           7740.82       GW BOUNDARY FLOW =             35.33

   INFLOWS - OUTFLOWS =        4994635.71     INFLOWS - OUTFLOWS =        -173301.11
             --------                                   --------

 TOTAL STORAGE CHANGE =        4997447.19         STORAGE CHANGE =        -173300.45
       --------------                             --------------
         LAND SURFACE =        1002923.70           LAND SURFACE =        -146987.41
            SOIL ZONE =        6322289.09              SOIL ZONE =         -36536.79
     UNSATURATED ZONE =       -2894815.53       UNSATURATED ZONE =          10155.29
       SATURATED ZONE =         567049.92         SATURATED ZONE =             68.45

 OVERALL BUDGET ERROR =          -2811.48           BUDGET ERROR =             -0.66


  PERCENT DISCREPANCY =             -0.02    PERCENT DISCREPANCY =             -0.00



1
 SUMMARY VOLUMETRIC BUDGET FOR GSFLOW 
 DATE: 05 12 1991              CUMULATIVE TIME STEP:      12
 MODFLOW STRESS PERIOD      9     CURRENT TIME STEP:     224     ITERATIONS:       7

 -----------------------------------------------------------------------------------

   CUMULATIVE VOLUMES               L**3   RATES FOR THIS TIME STEP           L**3/T
   ------------------                      ------------------------

                                     IN                                         IN
                                     --                                         --
        PRECIPITATION =        1.4029D+07          PRECIPITATION =                  
           STREAMFLOW =                               STREAMFLOW =                  
     GW BOUNDARY FLOW =            109.79       GW BOUNDARY FLOW =              1.31


                                    OUT                                        OUT
                                    ---                                        ---
   EVAPOTRANSPIRATION =        4435672.75     EVAPOTRANSPIRATION =          68750.33
           STREAMFLOW =        5003256.81             STREAMFLOW =          85471.68
     GW BOUNDARY FLOW =           7986.85       GW BOUNDARY FLOW =             35.17

   INFLOWS - OUTFLOWS =        4582415.54     INFLOWS - OUTFLOWS =        -154255.86
             --------                                   --------

 TOTAL STORAGE CHANGE =        4585230.17         STORAGE CHANGE =        -154255.40
       --------------                             --------------
         LAND SURFACE =         553714.47           LAND SURFACE =        -203810.16
            SOIL ZONE =        6294582.69              SOIL ZONE =          40525.37
     UNSATURATED ZONE =       -2832933.15       UNSATURATED ZONE =           8743.22
       SATURATED ZONE =         569866.17         SATURATED ZONE =            286.17

 OVERALL BUDGET ERROR =          -2814.63           BUDGET ERROR =             -0.46


  PERCENT DISCREPANCY =             -0.02    PERCENT DISCREPANCY =             -0.00



1
 SUMMARY VOLUMETRIC BUDGET FOR GSFLOW 
 DATE: 05 19 1991              CUMULATIVE TIME STEP:      19
 MODFLOW STRESS PERIOD      9     CURRENT TIME STEP:     231     ITERATIONS:       7

 -----------------------------------------------------------------------------------

   CUMULATIVE VOLUMES               L**3   RATES FOR THIS TIME STEP           L**3/T
   ------------------                      ------------------------

                                     IN                                         IN
                                     --                                         --
        PRECIPITATION =        1.4365D+07          PRECIPITATION =                  
           STREAMFLOW =                               STREAMFLOW =                  
     GW BOUNDARY FLOW =            119.13       GW BOUNDARY FLOW =              1.35


                                    OUT                                        OUT
                                    ---                                        ---
   EVAPOTRANSPIRATION =        4874108.45     EVAPOTRANSPIRATION =          20369.32
           STREAMFLOW =        5449660.25             STREAMFLOW =          55153.90
     GW BOUNDARY FLOW =           8230.59       GW BOUNDARY FLOW =             34.64

   INFLOWS - OUTFLOWS =        4033498.16     INFLOWS - OUTFLOWS =         -75556.51
             --------                                   --------

 TOTAL STORAGE CHANGE =        4036312.85         STORAGE CHANGE =         -75556.84
       --------------                             --------------
         LAND SURFACE =         218828.52           LAND SURFACE =         -22220.80
            SOIL ZONE =        6029532.09              SOIL ZONE =         -59323.04
     UNSATURATED ZONE =       -2785251.49       UNSATURATED ZONE =           5431.38
       SATURATED ZONE =         573203.72         SATURATED ZONE =            555.61

 OVERALL BUDGET ERROR =          -2814.69           BUDGET ERROR =              0.33


  PERCENT DISCREPANCY =             -0.02    PERCENT DISCREPANCY =              0.00



1
 SUMMARY VOLUMETRIC BUDGET FOR GSFLOW 
 DATE: 05 26 1991              CUMULATIVE TIME STEP:      26
 MODFLOW STRESS PERIOD      9     CURRENT TIME STEP:     238     ITERATIONS:       6

 -----------------------------------------------------------------------------------

   CUMULATIVE VOLUMES               L**3   RATES FOR THIS TIME STEP           L**3/T
   ------------------                      ------------------------

                                     IN                                         IN
                                     --                                         --
        PRECIPITATION =        1.4426D+07          PRECIPITATION =                  
           STREAMFLOW =                               STREAMFLOW =                  
     GW BOUNDARY FLOW =            128.75       GW BOUNDARY FLOW =              1.39


                                    OUT                                        OUT
                                    ---                                        ---
   EVAPOTRANSPIRATION =        5558584.68     EVAPOTRANSPIRATION =          76940.71
           STREAMFLOW =        5753090.29             STREAMFLOW =          30978.64
     GW BOUNDARY FLOW =           8471.23       GW BOUNDARY FLOW =             34.12

   INFLOWS - OUTFLOWS =        3106480.16     INFLOWS - OUTFLOWS =        -107952.08
             --------                                   --------

 TOTAL STORAGE CHANGE =        3109293.20         STORAGE CHANGE =        -107951.37
       --------------                             --------------
         LAND SURFACE =          51935.97           LAND SURFACE =          -7710.23
            SOIL ZONE =        5248084.92              SOIL ZONE =         -99872.04
     UNSATURATED ZONE =       -2765153.95       UNSATURATED ZONE =           -156.28
       SATURATED ZONE =         574426.26         SATURATED ZONE =           -212.82

 OVERALL BUDGET ERROR =          -2813.04           BUDGET ERROR =             -0.71


  PERCENT DISCREPANCY =             -0.02    PERCENT DISCREPANCY =             -0.00



1
 SUMMARY VOLUMETRIC BUDGET FOR GSFLOW 
 DATE: 06 02 1991              CUMULATIVE TIME STEP:       2
 MODFLOW STRESS PERIOD     10     CURRENT TIME STEP:     245     ITERATIONS:       6

 -----------------------------------------------------------------------------------

   CUMULATIVE VOLUMES               L**3   RATES FOR THIS TIME STEP           L**3/T
   ------------------                      ------------------------

                                     IN                                         IN
                                     --                                         --
        PRECIPITATION =        1.4671D+07          PRECIPITATION =                  
           STREAMFLOW =                               STREAMFLOW =                  
     GW BOUNDARY FLOW =            138.65       GW BOUNDARY FLOW =              1.43


                                    OUT                                        OUT
                                    ---                                        ---
   EVAPOTRANSPIRATION =        6146911.36     EVAPOTRANSPIRATION =         127367.25
           STREAMFLOW =        5962652.05             STREAMFLOW =          25686.95
     GW BOUNDARY FLOW =           8709.31       GW BOUNDARY FLOW =             33.87

   INFLOWS - OUTFLOWS =        2552840.73     INFLOWS - OUTFLOWS =        -153086.63
             --------                                   --------

 TOTAL STORAGE CHANGE =        2555673.13         STORAGE CHANGE =        -153083.13
       --------------                             --------------
         LAND SURFACE =          18582.58           LAND SURFACE =          -3939.25
            SOIL ZONE =        4746676.51              SOIL ZONE =        -145051.26
     UNSATURATED ZONE =       -2779699.73       UNSATURATED ZONE =          -3159.36
       SATURATED ZONE =         570113.77         SATURATED ZONE =           -933.26

 OVERALL BUDGET ERROR =          -2832.41           BUDGET ERROR =             -3.51


  PERCENT DISCREPANCY =             -0.02    PERCENT DISCREPANCY =             -0.00



1
 SUMMARY VOLUMETRIC BUDGET FOR GSFLOW 
 DATE: 06 09 1991              CUMULATIVE TIME STEP:       9
 MODFLOW STRESS PERIOD     10     CURRENT TIME STEP:     252     ITERATIONS:       7

 -----------------------------------------------------------------------------------

   CUMULATIVE VOLUMES               L**3   RATES FOR THIS TIME STEP           L**3/T
   ------------------                      ------------------------

                                     IN                                         IN
                                     --                                         --
        PRECIPITATION =        1.4671D+07          PRECIPITATION =                  
           STREAMFLOW =                               STREAMFLOW =                  
     GW BOUNDARY FLOW =            148.85       GW BOUNDARY FLOW =              1.47


                                    OUT                                        OUT
                                    ---                                        ---
   EVAPOTRANSPIRATION =        6934131.33     EVAPOTRANSPIRATION =         172205.04
           STREAMFLOW =        6113587.97             STREAMFLOW =          18717.53
     GW BOUNDARY FLOW =           8945.26       GW BOUNDARY FLOW =             33.59

   INFLOWS - OUTFLOWS =        1614459.08     INFLOWS - OUTFLOWS =        -190954.68
             --------                                   --------

 TOTAL STORAGE CHANGE =        1617331.37         STORAGE CHANGE =        -190948.48
       --------------                             --------------
         LAND SURFACE =           3506.25           LAND SURFACE =          -2050.79
            SOIL ZONE =        3871125.78              SOIL ZONE =        -180290.23
     UNSATURATED ZONE =       -2816648.00       UNSATURATED ZONE =          -6486.28
       SATURATED ZONE =         559347.33         SATURATED ZONE =          -2121.17

 OVERALL BUDGET ERROR =          -2872.29           BUDGET ERROR =             -6.20


  PERCENT DISCREPANCY =             -0.02    PERCENT DISCREPANCY =             -0.00



1
 SUMMARY VOLUMETRIC BUDGET FOR GSFLOW 
 DATE: 06 16 1991              CUMULATIVE TIME STEP:      16
 MODFLOW STRESS PERIOD     10     CURRENT TIME STEP:     259     ITERATIONS:       6

 -----------------------------------------------------------------------------------

   CUMULATIVE VOLUMES               L**3   RATES FOR THIS TIME STEP           L**3/T
   ------------------                      ------------------------

                                     IN                                         IN
                                     --                                         --
        PRECIPITATION =        1.4671D+07          PRECIPITATION =                  
           STREAMFLOW =                               STREAMFLOW =                  
     GW BOUNDARY FLOW =            159.33       GW BOUNDARY FLOW =              1.51


                                    OUT                                        OUT
                                    ---                                        ---
   EVAPOTRANSPIRATION =        7949106.03     EVAPOTRANSPIRATION =         116805.56
           STREAMFLOW =        6231288.76             STREAMFLOW =          16246.47
     GW BOUNDARY FLOW =           9179.47       GW BOUNDARY FLOW =             33.38

   INFLOWS - OUTFLOWS =         481559.87     INFLOWS - OUTFLOWS =        -133083.89
             --------                                   --------

 TOTAL STORAGE CHANGE =         484496.10         STORAGE CHANGE =        -133073.01
       --------------                             --------------
         LAND SURFACE =             96.44           LAND SURFACE =            -47.78
            SOIL ZONE =        2847656.19              SOIL ZONE =        -113176.39
     UNSATURATED ZONE =       -2902756.35       UNSATURATED ZONE =         -16207.38
       SATURATED ZONE =         539499.82         SATURATED ZONE =          -3641.46

 OVERALL BUDGET ERROR =          -2936.24           BUDGET ERROR =            -10.88


  PERCENT DISCREPANCY =             -0.02    PERCENT DISCREPANCY =             -0.01



1
 SUMMARY VOLUMETRIC BUDGET FOR GSFLOW 
 DATE: 06 23 1991              CUMULATIVE TIME STEP:      23
 MODFLOW STRESS PERIOD     10     CURRENT TIME STEP:     266     ITERATIONS:       5

 -----------------------------------------------------------------------------------

   CUMULATIVE VOLUMES               L**3   RATES FOR THIS TIME STEP           L**3/T
   ------------------                      ------------------------

                                     IN                                         IN
                                     --                                         --
        PRECIPITATION =        1.4671D+07          PRECIPITATION =                  
           STREAMFLOW =                               STREAMFLOW =                  
     GW BOUNDARY FLOW =            169.90       GW BOUNDARY FLOW =              1.48


                                    OUT                                        OUT
                                    ---                                        ---
   EVAPOTRANSPIRATION =        8491433.92     EVAPOTRANSPIRATION =          38892.00
           STREAMFLOW =        6341431.16             STREAMFLOW =          15449.50
     GW BOUNDARY FLOW =           9412.48       GW BOUNDARY FLOW =             33.22

   INFLOWS - OUTFLOWS =        -171132.86     INFLOWS - OUTFLOWS =         -54373.24
             --------                                   --------

 TOTAL STORAGE CHANGE =        -168106.33         STORAGE CHANGE =         -54352.18
       --------------                             --------------
         LAND SURFACE =             13.79           LAND SURFACE =             -3.53
            SOIL ZONE =        2341118.27              SOIL ZONE =         -35970.29
     UNSATURATED ZONE =       -3015647.81       UNSATURATED ZONE =         -13182.73
       SATURATED ZONE =         506409.41         SATURATED ZONE =          -5195.64

 OVERALL BUDGET ERROR =          -3026.53           BUDGET ERROR =            -21.06


  PERCENT DISCREPANCY =             -0.02    PERCENT DISCREPANCY =             -0.04



1
 SUMMARY VOLUMETRIC BUDGET FOR GSFLOW 
 DATE: 06 30 1991              CUMULATIVE TIME STEP:      30
 MODFLOW STRESS PERIOD     10     CURRENT TIME STEP:     273     ITERATIONS:       5

 -----------------------------------------------------------------------------------

   CUMULATIVE VOLUMES               L**3   RATES FOR THIS TIME STEP           L**3/T
   ------------------                      ------------------------

                                     IN                                         IN
[...]
     GW BOUNDARY FLOW =          51254.83       GW BOUNDARY FLOW =             25.10

   INFLOWS - OUTFLOWS =       -1.1020D+07     INFLOWS - OUTFLOWS =         -87883.66
             --------                                   --------

 TOTAL STORAGE CHANGE =       -1.1012D+07         STORAGE CHANGE =         -87892.81
       --------------                             --------------
         LAND SURFACE =         174963.95           LAND SURFACE =         -10872.66
            SOIL ZONE =        1880647.18              SOIL ZONE =         -59472.54
     UNSATURATED ZONE =          46526.55       UNSATURATED ZONE =         -12407.74
       SATURATED ZONE =       -1.3114D+07         SATURATED ZONE =          -5139.87

 OVERALL BUDGET ERROR =          -8165.41           BUDGET ERROR =              9.15


  PERCENT DISCREPANCY =             -0.01    PERCENT DISCREPANCY =              0.01



1
 SUMMARY VOLUMETRIC BUDGET FOR GSFLOW 
 DATE: 09 03 1995              CUMULATIVE TIME STEP:       3
 MODFLOW STRESS PERIOD     61     CURRENT TIME STEP:    1799     ITERATIONS:       7

 -----------------------------------------------------------------------------------

   CUMULATIVE VOLUMES               L**3   RATES FOR THIS TIME STEP           L**3/T
   ------------------                      ------------------------

                                     IN                                         IN
                                     --                                         --
        PRECIPITATION =        1.3351D+08          PRECIPITATION =                  
           STREAMFLOW =                               STREAMFLOW =                  
     GW BOUNDARY FLOW =           5415.13       GW BOUNDARY FLOW =              3.31


                                    OUT                                        OUT
                                    ---                                        ---
   EVAPOTRANSPIRATION =        7.4188D+07     EVAPOTRANSPIRATION =          66641.79
           STREAMFLOW =        7.0878D+07             STREAMFLOW =          11378.45
     GW BOUNDARY FLOW =          51430.28       GW BOUNDARY FLOW =             25.04

   INFLOWS - OUTFLOWS =       -1.1604D+07     INFLOWS - OUTFLOWS =         -78041.96
             --------                                   --------

 TOTAL STORAGE CHANGE =       -1.1596D+07         STORAGE CHANGE =         -78048.89
       --------------                             --------------
         LAND SURFACE =         111496.24           LAND SURFACE =          -7601.38
            SOIL ZONE =        1484636.95              SOIL ZONE =         -52624.60
     UNSATURATED ZONE =         -35222.10       UNSATURATED ZONE =         -11426.59
       SATURATED ZONE =       -1.3157D+07         SATURATED ZONE =          -6396.32

 OVERALL BUDGET ERROR =          -8109.53           BUDGET ERROR =              6.93


  PERCENT DISCREPANCY =             -0.01    PERCENT DISCREPANCY =              0.01



1
 SUMMARY VOLUMETRIC BUDGET FOR GSFLOW 
 DATE: 09 10 1995              CUMULATIVE TIME STEP:      10
 MODFLOW STRESS PERIOD     61     CURRENT TIME STEP:    1806     ITERATIONS:       6

 -----------------------------------------------------------------------------------

   CUMULATIVE VOLUMES               L**3   RATES FOR THIS TIME STEP           L**3/T
   ------------------                      ------------------------

                                     IN                                         IN
                                     --                                         --
        PRECIPITATION =        1.3351D+08          PRECIPITATION =                  
           STREAMFLOW =                               STREAMFLOW =                  
     GW BOUNDARY FLOW =           5438.72       GW BOUNDARY FLOW =              3.42


                                    OUT                                        OUT
                                    ---                                        ---
   EVAPOTRANSPIRATION =        7.4563D+07     EVAPOTRANSPIRATION =          50283.62
           STREAMFLOW =        7.0956D+07             STREAMFLOW =          10894.47
     GW BOUNDARY FLOW =          51605.35       GW BOUNDARY FLOW =             24.99

   INFLOWS - OUTFLOWS =       -1.2056D+07     INFLOWS - OUTFLOWS =         -61199.67
             --------                                   --------

 TOTAL STORAGE CHANGE =       -1.2048D+07         STORAGE CHANGE =         -61210.49
       --------------                             --------------
         LAND SURFACE =          73766.24           LAND SURFACE =          -4565.46
            SOIL ZONE =        1190160.61              SOIL ZONE =         -39196.08
     UNSATURATED ZONE =        -111399.06       UNSATURATED ZONE =         -10679.27
       SATURATED ZONE =       -1.3201D+07         SATURATED ZONE =          -6769.69

 OVERALL BUDGET ERROR =          -8042.99           BUDGET ERROR =             10.83


  PERCENT DISCREPANCY =             -0.01    PERCENT DISCREPANCY =              0.02



1
 SUMMARY VOLUMETRIC BUDGET FOR GSFLOW 
 DATE: 09 17 1995              CUMULATIVE TIME STEP:      17
 MODFLOW STRESS PERIOD     61     CURRENT TIME STEP:    1813     ITERATIONS:       7

 -----------------------------------------------------------------------------------

   CUMULATIVE VOLUMES               L**3   RATES FOR THIS TIME STEP           L**3/T
   ------------------                      ------------------------

                                     IN                                         IN
                                     --                                         --
        PRECIPITATION =        1.3351D+08          PRECIPITATION =                  
           STREAMFLOW =                               STREAMFLOW =                  
     GW BOUNDARY FLOW =           5463.04       GW BOUNDARY FLOW =              3.52


                                    OUT                                        OUT
                                    ---                                        ---
   EVAPOTRANSPIRATION =        7.4972D+07     EVAPOTRANSPIRATION =          46646.74
           STREAMFLOW =        7.1029D+07             STREAMFLOW =          10306.37
     GW BOUNDARY FLOW =          51780.04       GW BOUNDARY FLOW =             24.94

   INFLOWS - OUTFLOWS =       -1.2538D+07     INFLOWS - OUTFLOWS =         -56974.53
             --------                                   --------

 TOTAL STORAGE CHANGE =       -1.2530D+07         STORAGE CHANGE =         -56978.64
       --------------                             --------------
         LAND SURFACE =          42893.76           LAND SURFACE =          -2921.51
            SOIL ZONE =         879868.61              SOIL ZONE =         -34302.70
     UNSATURATED ZONE =        -190459.83       UNSATURATED ZONE =         -11471.57
       SATURATED ZONE =       -1.3263D+07         SATURATED ZONE =          -8282.86

 OVERALL BUDGET ERROR =          -7988.29           BUDGET ERROR =              4.10


  PERCENT DISCREPANCY =             -0.01    PERCENT DISCREPANCY =              0.01



1
 SUMMARY VOLUMETRIC BUDGET FOR GSFLOW 
 DATE: 09 24 1995              CUMULATIVE TIME STEP:      24
 MODFLOW STRESS PERIOD     61     CURRENT TIME STEP:    1820     ITERATIONS:       6

 -----------------------------------------------------------------------------------

   CUMULATIVE VOLUMES               L**3   RATES FOR THIS TIME STEP           L**3/T
   ------------------                      ------------------------

                                     IN                                         IN
                                     --                                         --
        PRECIPITATION =        1.3351D+08          PRECIPITATION =                  
           STREAMFLOW =                               STREAMFLOW =                  
     GW BOUNDARY FLOW =           5488.05       GW BOUNDARY FLOW =              3.61


                                    OUT                                        OUT
                                    ---                                        ---
   EVAPOTRANSPIRATION =        7.5261D+07     EVAPOTRANSPIRATION =          30103.13
           STREAMFLOW =        7.1100D+07             STREAMFLOW =          10106.47
     GW BOUNDARY FLOW =          51954.45       GW BOUNDARY FLOW =             24.90

   INFLOWS - OUTFLOWS =       -1.2898D+07     INFLOWS - OUTFLOWS =         -40230.89
             --------                                   --------

 TOTAL STORAGE CHANGE =       -1.2890D+07         STORAGE CHANGE =         -40237.61
       --------------                             --------------
         LAND SURFACE =          27188.11           LAND SURFACE =          -1533.29
            SOIL ZONE =         673622.53              SOIL ZONE =         -20840.78
     UNSATURATED ZONE =        -267666.41       UNSATURATED ZONE =         -10297.15
       SATURATED ZONE =       -1.3324D+07         SATURATED ZONE =          -7566.40

 OVERALL BUDGET ERROR =          -7957.25           BUDGET ERROR =              6.72


  PERCENT DISCREPANCY =             -0.01    PERCENT DISCREPANCY =              0.02



1
 SUMMARY VOLUMETRIC BUDGET FOR GSFLOW 
 DATE: 10 01 1995              CUMULATIVE TIME STEP:       1
 MODFLOW STRESS PERIOD     62     CURRENT TIME STEP:    1827     ITERATIONS:       6

 -----------------------------------------------------------------------------------

   CUMULATIVE VOLUMES               L**3   RATES FOR THIS TIME STEP           L**3/T
   ------------------                      ------------------------

                                     IN                                         IN
                                     --                                         --
        PRECIPITATION =        1.3351D+08          PRECIPITATION =                  
           STREAMFLOW =                               STREAMFLOW =                  
     GW BOUNDARY FLOW =           5513.72       GW BOUNDARY FLOW =              3.70


                                    OUT                                        OUT
                                    ---                                        ---
   EVAPOTRANSPIRATION =        7.5388D+07     EVAPOTRANSPIRATION =          18486.06
           STREAMFLOW =        7.1171D+07             STREAMFLOW =          10092.19
     GW BOUNDARY FLOW =          52128.70       GW BOUNDARY FLOW =             24.88

   INFLOWS - OUTFLOWS =       -1.3097D+07     INFLOWS - OUTFLOWS =         -28599.43
             --------                                   --------

 TOTAL STORAGE CHANGE =       -1.3089D+07         STORAGE CHANGE =         -28604.82
       --------------                             --------------
         LAND SURFACE =          21549.71           LAND SURFACE =           -680.64
            SOIL ZONE =         586916.28              SOIL ZONE =         -12597.59
     UNSATURATED ZONE =        -331310.02       UNSATURATED ZONE =          -8915.13
       SATURATED ZONE =       -1.3366D+07         SATURATED ZONE =          -6411.47

 OVERALL BUDGET ERROR =          -7921.82           BUDGET ERROR =              5.39


  PERCENT DISCREPANCY =             -0.01    PERCENT DISCREPANCY =              0.02



1
 SUMMARY VOLUMETRIC BUDGET FOR GSFLOW 
 DATE: 10 08 1995              CUMULATIVE TIME STEP:       8
 MODFLOW STRESS PERIOD     62     CURRENT TIME STEP:    1834     ITERATIONS:       5

 -----------------------------------------------------------------------------------

   CUMULATIVE VOLUMES               L**3   RATES FOR THIS TIME STEP           L**3/T
   ------------------                      ------------------------

                                     IN                                         IN
                                     --                                         --
        PRECIPITATION =        1.3351D+08          PRECIPITATION =                  
           STREAMFLOW =                               STREAMFLOW =                  
     GW BOUNDARY FLOW =           5539.97       GW BOUNDARY FLOW =              3.79


                                    OUT                                        OUT
                                    ---                                        ---
   EVAPOTRANSPIRATION =        7.5524D+07     EVAPOTRANSPIRATION =          17056.14
           STREAMFLOW =        7.1241D+07             STREAMFLOW =           9951.71
     GW BOUNDARY FLOW =          52302.80       GW BOUNDARY FLOW =             24.86

   INFLOWS - OUTFLOWS =       -1.3303D+07     INFLOWS - OUTFLOWS =         -27028.93
             --------                                   --------

 TOTAL STORAGE CHANGE =       -1.3295D+07         STORAGE CHANGE =         -27035.67
       --------------                             --------------
         LAND SURFACE =          17598.15           LAND SURFACE =           -617.60
            SOIL ZONE =         494562.97              SOIL ZONE =         -11322.70
     UNSATURATED ZONE =        -390957.08       UNSATURATED ZONE =          -8154.51
       SATURATED ZONE =       -1.3416D+07         SATURATED ZONE =          -6940.86

 OVERALL BUDGET ERROR =          -7883.83           BUDGET ERROR =              6.74


  PERCENT DISCREPANCY =             -0.01    PERCENT DISCREPANCY =              0.02



1
 SUMMARY VOLUMETRIC BUDGET FOR GSFLOW 
 DATE: 10 15 1995              CUMULATIVE TIME STEP:      15
 MODFLOW STRESS PERIOD     62     CURRENT TIME STEP:    1841     ITERATIONS:       5

 -----------------------------------------------------------------------------------

   CUMULATIVE VOLUMES               L**3   RATES FOR THIS TIME STEP           L**3/T
   ------------------                      ------------------------

                                     IN                                         IN
                                     --                                         --
        PRECIPITATION =        1.3351D+08          PRECIPITATION =                  
           STREAMFLOW =                               STREAMFLOW =                  
     GW BOUNDARY FLOW =           5566.78       GW BOUNDARY FLOW =              3.86


                                    OUT                                        OUT
                                    ---                                        ---
   EVAPOTRANSPIRATION =        7.5651D+07     EVAPOTRANSPIRATION =          19797.36
           STREAMFLOW =        7.1309D+07             STREAMFLOW =           9603.52
     GW BOUNDARY FLOW =          52475.97       GW BOUNDARY FLOW =             24.71

   INFLOWS - OUTFLOWS =       -1.3499D+07     INFLOWS - OUTFLOWS =         -29421.73
             --------                                   --------

 TOTAL STORAGE CHANGE =       -1.3491D+07         STORAGE CHANGE =         -29425.09
       --------------                             --------------
         LAND SURFACE =          13563.28           LAND SURFACE =           -673.08
            SOIL ZONE =         410197.08              SOIL ZONE =         -12918.41
     UNSATURATED ZONE =        -445225.25       UNSATURATED ZONE =          -7525.51
       SATURATED ZONE =       -1.3469D+07         SATURATED ZONE =          -8308.09

 OVERALL BUDGET ERROR =          -7863.37           BUDGET ERROR =              3.36


  PERCENT DISCREPANCY =             -0.01    PERCENT DISCREPANCY =              0.01



1
 SUMMARY VOLUMETRIC BUDGET FOR GSFLOW 
 DATE: 10 22 1995              CUMULATIVE TIME STEP:      22
 MODFLOW STRESS PERIOD     62     CURRENT TIME STEP:    1848     ITERATIONS:      10

 -----------------------------------------------------------------------------------

   CUMULATIVE VOLUMES               L**3   RATES FOR THIS TIME STEP           L**3/T
   ------------------                      ------------------------

                                     IN                                         IN
                                     --                                         --
        PRECIPITATION =        1.3351D+08          PRECIPITATION =                  
           STREAMFLOW =                               STREAMFLOW =                  
     GW BOUNDARY FLOW =           5594.12       GW BOUNDARY FLOW =              3.94


                                    OUT                                        OUT
                                    ---                                        ---
   EVAPOTRANSPIRATION =        7.5764D+07     EVAPOTRANSPIRATION =           5155.60
           STREAMFLOW =        7.1376D+07             STREAMFLOW =           9945.39
     GW BOUNDARY FLOW =          52648.68       GW BOUNDARY FLOW =             24.71

   INFLOWS - OUTFLOWS =       -1.3679D+07     INFLOWS - OUTFLOWS =         -15121.76
             --------                                   --------

 TOTAL STORAGE CHANGE =       -1.3671D+07         STORAGE CHANGE =         -15122.05
       --------------                             --------------
         LAND SURFACE =          10116.83           LAND SURFACE =             -7.50
            SOIL ZONE =         338144.22              SOIL ZONE =          -3053.12
     UNSATURATED ZONE =        -495004.70       UNSATURATED ZONE =          -6560.10
       SATURATED ZONE =       -1.3524D+07         SATURATED ZONE =          -5501.34

 OVERALL BUDGET ERROR =          -7854.05           BUDGET ERROR =              0.30


  PERCENT DISCREPANCY =             -0.01    PERCENT DISCREPANCY =              0.00



1
 SUMMARY VOLUMETRIC BUDGET FOR GSFLOW 
 DATE: 10 29 1995              CUMULATIVE TIME STEP:      29
 MODFLOW STRESS PERIOD     62     CURRENT TIME STEP:    1855     ITERATIONS:       5

 -----------------------------------------------------------------------------------

   CUMULATIVE VOLUMES               L**3   RATES FOR THIS TIME STEP           L**3/T
   ------------------                      ------------------------

                                     IN                                         IN
                                     --                                         --
        PRECIPITATION =        1.3351D+08          PRECIPITATION =                  
           STREAMFLOW =                               STREAMFLOW =                  
     GW BOUNDARY FLOW =           5622.06       GW BOUNDARY FLOW =              4.03


                                    OUT                                        OUT
                                    ---                                        ---
   EVAPOTRANSPIRATION =        7.5836D+07     EVAPOTRANSPIRATION =          12318.29
           STREAMFLOW =        7.1444D+07             STREAMFLOW =           9517.34
     GW BOUNDARY FLOW =          52821.55       GW BOUNDARY FLOW =             24.65

   INFLOWS - OUTFLOWS =       -1.3818D+07     INFLOWS - OUTFLOWS =         -21856.25
             --------                                   --------

 TOTAL STORAGE CHANGE =       -1.3810D+07         STORAGE CHANGE =         -21858.38
       --------------                             --------------
         LAND SURFACE =           8965.14           LAND SURFACE =           -342.48
            SOIL ZONE =         295068.01              SOIL ZONE =          -7272.04
     UNSATURATED ZONE =        -541917.25       UNSATURATED ZONE =          -6656.97
       SATURATED ZONE =       -1.3573D+07         SATURATED ZONE =          -7586.89

 OVERALL BUDGET ERROR =          -7845.20           BUDGET ERROR =              2.12


  PERCENT DISCREPANCY =             -0.01    PERCENT DISCREPANCY =              0.01



 Number of time steps:   1857;  Number of non-convergence:   0
 MF iterations:         11503;  SZ iterations:           11492
 Average MF iterations:  6.19;  Average SZ iterations:    6.19
 Maximum MF iterations:    61;  Maximum SZ iterations:      50

mxsziter reached: 1

