1
 SUMMARY VOLUMETRIC BUDGET FOR GSFLOW 
 DATE: 10 07 1990              CUMULATIVE TIME STEP:       7
 MODFLOW STRESS PERIOD      2     CURRENT TIME STEP:       7     ITERATIONS:       7

 -----------------------------------------------------------------------------------

   CUMULATIVE VOLUMES               L**3   RATES FOR THIS TIME STEP           L**3/T
   ------------------                      ------------------------

                                     IN                                         IN
                                     --                                         --
        PRECIPITATION =                            PRECIPITATION =                  
           STREAMFLOW =                               STREAMFLOW =                  
     GW BOUNDARY FLOW =                         GW BOUNDARY FLOW =                  


                                    OUT                                        OUT
                                    ---                                        ---
   EVAPOTRANSPIRATION =         384999.51     EVAPOTRANSPIRATION =          11800.15
           STREAMFLOW =          46667.93             STREAMFLOW =           8198.47
     GW BOUNDARY FLOW =            252.84       GW BOUNDARY FLOW =             36.31

   INFLOWS - OUTFLOWS =        -431920.28     INFLOWS - OUTFLOWS =         -20034.92
             --------                                   --------

 TOTAL STORAGE CHANGE =        -430449.80         STORAGE CHANGE =         -20008.32
       --------------                             --------------
         LAND SURFACE =                             LAND SURFACE =                  
            SOIL ZONE =         -34290.83              SOIL ZONE =           -969.47
     UNSATURATED ZONE =        -502309.57       UNSATURATED ZONE =         -33323.79
       SATURATED ZONE =         106150.60         SATURATED ZONE =          14284.94

 OVERALL BUDGET ERROR =          -1470.48           BUDGET ERROR =            -26.60


  PERCENT DISCREPANCY =             -0.34    PERCENT DISCREPANCY =             -0.13



1
 SUMMARY VOLUMETRIC BUDGET FOR GSFLOW 
 DATE: 10 14 1990              CUMULATIVE TIME STEP:      14
 MODFLOW STRESS PERIOD      2     CURRENT TIME STEP:      14     ITERATIONS:       6

 -----------------------------------------------------------------------------------

   CUMULATIVE VOLUMES               L**3   RATES FOR THIS TIME STEP           L**3/T
   ------------------                      ------------------------

                                     IN                                         IN
                                     --                                         --
        PRECIPITATION =                            PRECIPITATION =                  
           STREAMFLOW =                               STREAMFLOW =                  
     GW BOUNDARY FLOW =                         GW BOUNDARY FLOW =                  


                                    OUT                                        OUT
                                    ---                                        ---
   EVAPOTRANSPIRATION =         665198.50     EVAPOTRANSPIRATION =          42313.85
           STREAMFLOW =         102111.88             STREAMFLOW =           7521.89
     GW BOUNDARY FLOW =            506.72       GW BOUNDARY FLOW =             36.25

   INFLOWS - OUTFLOWS =        -767817.10     INFLOWS - OUTFLOWS =         -49871.99
             --------                                   --------

 TOTAL STORAGE CHANGE =        -766062.58         STORAGE CHANGE =         -49851.35
       --------------                             --------------
         LAND SURFACE =                             LAND SURFACE =                  
            SOIL ZONE =         -59879.82              SOIL ZONE =          -4521.26
     UNSATURATED ZONE =        -877157.81       UNSATURATED ZONE =         -52135.24
       SATURATED ZONE =         170975.05         SATURATED ZONE =           6805.14

 OVERALL BUDGET ERROR =          -1754.52           BUDGET ERROR =            -20.64


  PERCENT DISCREPANCY =             -0.23    PERCENT DISCREPANCY =             -0.04



1
 SUMMARY VOLUMETRIC BUDGET FOR GSFLOW 
 DATE: 10 21 1990              CUMULATIVE TIME STEP:      21
 MODFLOW STRESS PERIOD      2     CURRENT TIME STEP:      21     ITERATIONS:       6

 -----------------------------------------------------------------------------------

   CUMULATIVE VOLUMES               L**3   RATES FOR THIS TIME STEP           L**3/T
   ------------------                      ------------------------

                                     IN                                         IN
                                     --                                         --
        PRECIPITATION =         188432.87          PRECIPITATION =                  
           STREAMFLOW =                               STREAMFLOW =                  
     GW BOUNDARY FLOW =                         GW BOUNDARY FLOW =                  


                                    OUT                                        OUT
                                    ---                                        ---
   EVAPOTRANSPIRATION =         815453.15     EVAPOTRANSPIRATION =          41709.14
           STREAMFLOW =         165361.95             STREAMFLOW =          10163.15
     GW BOUNDARY FLOW =            760.92       GW BOUNDARY FLOW =             36.37

   INFLOWS - OUTFLOWS =        -793143.16     INFLOWS - OUTFLOWS =         -51908.67
             --------                                   --------

 TOTAL STORAGE CHANGE =        -791334.55         STORAGE CHANGE =         -51913.50
       --------------                             --------------
         LAND SURFACE =          18885.57           LAND SURFACE =         -43558.49
            SOIL ZONE =          46639.47              SOIL ZONE =           2049.64
     UNSATURATED ZONE =       -1091074.91       UNSATURATED ZONE =         -21351.71
       SATURATED ZONE =         234215.33         SATURATED ZONE =          10947.06

 OVERALL BUDGET ERROR =          -1808.61           BUDGET ERROR =              4.83


  PERCENT DISCREPANCY =             -0.18    PERCENT DISCREPANCY =              0.01



1
 SUMMARY VOLUMETRIC BUDGET FOR GSFLOW 
 DATE: 10 28 1990              CUMULATIVE TIME STEP:      28
 MODFLOW STRESS PERIOD      2     CURRENT TIME STEP:      28     ITERATIONS:       6

 -----------------------------------------------------------------------------------

   CUMULATIVE VOLUMES               L**3   RATES FOR THIS TIME STEP           L**3/T
   ------------------                      ------------------------

                                     IN                                         IN
                                     --                                         --
        PRECIPITATION =         188432.87          PRECIPITATION =                  
           STREAMFLOW =                               STREAMFLOW =                  
     GW BOUNDARY FLOW =                         GW BOUNDARY FLOW =                  


                                    OUT                                        OUT
                                    ---                                        ---
   EVAPOTRANSPIRATION =         943808.42     EVAPOTRANSPIRATION =          11827.89
           STREAMFLOW =         227345.71             STREAMFLOW =           8995.27
     GW BOUNDARY FLOW =           1014.14       GW BOUNDARY FLOW =             36.13

   INFLOWS - OUTFLOWS =        -983735.40     INFLOWS - OUTFLOWS =         -20859.29
             --------                                   --------

 TOTAL STORAGE CHANGE =        -981915.24         STORAGE CHANGE =         -20861.47
       --------------                             --------------
         LAND SURFACE =                             LAND SURFACE =                  
            SOIL ZONE =          16749.39              SOIL ZONE =          -3528.73
     UNSATURATED ZONE =       -1274869.59       UNSATURATED ZONE =         -23295.71
       SATURATED ZONE =         276204.96         SATURATED ZONE =           5962.97

 OVERALL BUDGET ERROR =          -1820.16           BUDGET ERROR =              2.18


  PERCENT DISCREPANCY =             -0.16    PERCENT DISCREPANCY =              0.01



1
 SUMMARY VOLUMETRIC BUDGET FOR GSFLOW 
 DATE: 11 04 1990              CUMULATIVE TIME STEP:       4
 MODFLOW STRESS PERIOD      3     CURRENT TIME STEP:      35     ITERATIONS:       6

 -----------------------------------------------------------------------------------

   CUMULATIVE VOLUMES               L**3   RATES FOR THIS TIME STEP           L**3/T
   ------------------                      ------------------------

                                     IN                                         IN
                                     --                                         --
        PRECIPITATION =         703113.06          PRECIPITATION =                  
           STREAMFLOW =                               STREAMFLOW =                  
     GW BOUNDARY FLOW =                         GW BOUNDARY FLOW =                  


                                    OUT                                        OUT
                                    ---                                        ---
   EVAPOTRANSPIRATION =        1004388.14     EVAPOTRANSPIRATION =          26280.52
           STREAMFLOW =         297839.72             STREAMFLOW =          10541.63
     GW BOUNDARY FLOW =           1267.20       GW BOUNDARY FLOW =             36.14

   INFLOWS - OUTFLOWS =        -600381.99     INFLOWS - OUTFLOWS =         -36858.29
             --------                                   --------

 TOTAL STORAGE CHANGE =        -598583.30         STORAGE CHANGE =         -36862.98
       --------------                             --------------
         LAND SURFACE =         132159.65           LAND SURFACE =        -160480.33
            SOIL ZONE =         353948.90              SOIL ZONE =         134348.86
     UNSATURATED ZONE =       -1420708.22       UNSATURATED ZONE =         -20103.16
       SATURATED ZONE =         336016.36         SATURATED ZONE =           9371.66

 OVERALL BUDGET ERROR =          -1798.69           BUDGET ERROR =              4.69


  PERCENT DISCREPANCY =             -0.14    PERCENT DISCREPANCY =              0.01



1
 SUMMARY VOLUMETRIC BUDGET FOR GSFLOW 
 DATE: 11 11 1990              CUMULATIVE TIME STEP:      11
 MODFLOW STRESS PERIOD      3     CURRENT TIME STEP:      42     ITERATIONS:       6

 -----------------------------------------------------------------------------------

   CUMULATIVE VOLUMES               L**3   RATES FOR THIS TIME STEP           L**3/T
   ------------------                      ------------------------

                                     IN                                         IN
                                     --                                         --
        PRECIPITATION =         703113.06          PRECIPITATION =                  
           STREAMFLOW =                               STREAMFLOW =                  
     GW BOUNDARY FLOW =                         GW BOUNDARY FLOW =                  


                                    OUT                                        OUT
                                    ---                                        ---
   EVAPOTRANSPIRATION =        1081555.33     EVAPOTRANSPIRATION =          12134.32
           STREAMFLOW =         369313.74             STREAMFLOW =           9867.43
     GW BOUNDARY FLOW =           1519.35       GW BOUNDARY FLOW =             35.94

   INFLOWS - OUTFLOWS =        -749275.35     INFLOWS - OUTFLOWS =         -22037.69
             --------                                   --------

 TOTAL STORAGE CHANGE =        -747500.48         STORAGE CHANGE =         -22040.75
       --------------                             --------------
         LAND SURFACE =            595.09           LAND SURFACE =          -1416.54
            SOIL ZONE =         424104.48              SOIL ZONE =          -6316.90
     UNSATURATED ZONE =       -1560491.50       UNSATURATED ZONE =         -20008.21
       SATURATED ZONE =         388291.44         SATURATED ZONE =           5700.91

 OVERALL BUDGET ERROR =          -1774.87           BUDGET ERROR =              3.05


  PERCENT DISCREPANCY =             -0.12    PERCENT DISCREPANCY =              0.01



1
 SUMMARY VOLUMETRIC BUDGET FOR GSFLOW 
 DATE: 11 18 1990              CUMULATIVE TIME STEP:      18
 MODFLOW STRESS PERIOD      3     CURRENT TIME STEP:      49     ITERATIONS:       6

 -----------------------------------------------------------------------------------

   CUMULATIVE VOLUMES               L**3   RATES FOR THIS TIME STEP           L**3/T
   ------------------                      ------------------------

                                     IN                                         IN
                                     --                                         --
        PRECIPITATION =         747883.35          PRECIPITATION =                  
           STREAMFLOW =                               STREAMFLOW =                  
     GW BOUNDARY FLOW =                         GW BOUNDARY FLOW =                  


                                    OUT                                        OUT
                                    ---                                        ---
   EVAPOTRANSPIRATION =        1153986.02     EVAPOTRANSPIRATION =           5055.73
           STREAMFLOW =         441741.16             STREAMFLOW =          10681.87
     GW BOUNDARY FLOW =           1770.72       GW BOUNDARY FLOW =             35.89

   INFLOWS - OUTFLOWS =        -849614.54     INFLOWS - OUTFLOWS =         -15773.49
             --------                                   --------

 TOTAL STORAGE CHANGE =        -847861.07         STORAGE CHANGE =         -15776.98
       --------------                             --------------
         LAND SURFACE =           7868.08           LAND SURFACE =          -3691.47
            SOIL ZONE =         403573.13              SOIL ZONE =           -718.37
     UNSATURATED ZONE =       -1694484.54       UNSATURATED ZONE =         -18675.51
       SATURATED ZONE =         435182.26         SATURATED ZONE =           7308.37

 OVERALL BUDGET ERROR =          -1753.47           BUDGET ERROR =              3.50


  PERCENT DISCREPANCY =             -0.11    PERCENT DISCREPANCY =              0.02



1
 SUMMARY VOLUMETRIC BUDGET FOR GSFLOW 
 DATE: 11 25 1990              CUMULATIVE TIME STEP:      25
 MODFLOW STRESS PERIOD      3     CURRENT TIME STEP:      56     ITERATIONS:       6

 -----------------------------------------------------------------------------------

   CUMULATIVE VOLUMES               L**3   RATES FOR THIS TIME STEP           L**3/T
   ------------------                      ------------------------

                                     IN                                         IN
                                     --                                         --
        PRECIPITATION =        1009043.38          PRECIPITATION =         186542.88
           STREAMFLOW =                               STREAMFLOW =                  
     GW BOUNDARY FLOW =                         GW BOUNDARY FLOW =                  


                                    OUT                                        OUT
                                    ---                                        ---
   EVAPOTRANSPIRATION =        1214418.26     EVAPOTRANSPIRATION =           3759.75
           STREAMFLOW =         517642.94             STREAMFLOW =          10765.28
     GW BOUNDARY FLOW =           2021.68       GW BOUNDARY FLOW =             35.79

   INFLOWS - OUTFLOWS =        -725039.51     INFLOWS - OUTFLOWS =         171982.05
             --------                                   --------

 TOTAL STORAGE CHANGE =        -723304.81         STORAGE CHANGE =         171979.78
       --------------                             --------------
         LAND SURFACE =          86180.68           LAND SURFACE =          69567.13
            SOIL ZONE =         528221.59              SOIL ZONE =         114112.42
     UNSATURATED ZONE =       -1822516.75       UNSATURATED ZONE =         -17992.70
       SATURATED ZONE =         484809.68         SATURATED ZONE =           6292.93

 OVERALL BUDGET ERROR =          -1734.70           BUDGET ERROR =              2.27


  PERCENT DISCREPANCY =             -0.10    PERCENT DISCREPANCY =              0.00



1
 SUMMARY VOLUMETRIC BUDGET FOR GSFLOW 
 DATE: 12 02 1990              CUMULATIVE TIME STEP:       2
 MODFLOW STRESS PERIOD      4     CURRENT TIME STEP:      63     ITERATIONS:       6

 -----------------------------------------------------------------------------------

   CUMULATIVE VOLUMES               L**3   RATES FOR THIS TIME STEP           L**3/T
   ------------------                      ------------------------

                                     IN                                         IN
                                     --                                         --
        PRECIPITATION =        1449284.55          PRECIPITATION =                  
           STREAMFLOW =                               STREAMFLOW =                  
     GW BOUNDARY FLOW =                         GW BOUNDARY FLOW =                  


                                    OUT                                        OUT
                                    ---                                        ---
   EVAPOTRANSPIRATION =        1220913.98     EVAPOTRANSPIRATION =            234.69
           STREAMFLOW =         594657.51             STREAMFLOW =          11050.03
     GW BOUNDARY FLOW =           2272.19       GW BOUNDARY FLOW =             35.77

   INFLOWS - OUTFLOWS =        -368559.12     INFLOWS - OUTFLOWS =         -11320.49
             --------                                   --------

 TOTAL STORAGE CHANGE =        -366839.92         STORAGE CHANGE =         -11322.19
       --------------                             --------------
         LAND SURFACE =         486845.62           LAND SURFACE =           -339.04
            SOIL ZONE =         562208.52              SOIL ZONE =            235.28
     UNSATURATED ZONE =       -1945801.08       UNSATURATED ZONE =         -17368.65
       SATURATED ZONE =         529907.01         SATURATED ZONE =           6150.22

 OVERALL BUDGET ERROR =          -1719.20           BUDGET ERROR =              1.70


  PERCENT DISCREPANCY =             -0.09    PERCENT DISCREPANCY =              0.01



1
 SUMMARY VOLUMETRIC BUDGET FOR GSFLOW 
 DATE: 12 09 1990              CUMULATIVE TIME STEP:       9
 MODFLOW STRESS PERIOD      4     CURRENT TIME STEP:      70     ITERATIONS:       6

 -----------------------------------------------------------------------------------

   CUMULATIVE VOLUMES               L**3   RATES FOR THIS TIME STEP           L**3/T
   ------------------                      ------------------------

                                     IN                                         IN
                                     --                                         --
        PRECIPITATION =        1449284.55          PRECIPITATION =                  
           STREAMFLOW =                               STREAMFLOW =                  
     GW BOUNDARY FLOW =                         GW BOUNDARY FLOW =                  


                                    OUT                                        OUT
                                    ---                                        ---
   EVAPOTRANSPIRATION =        1296756.37     EVAPOTRANSPIRATION =          13851.42
           STREAMFLOW =         671792.06             STREAMFLOW =          10854.90
     GW BOUNDARY FLOW =           2522.16       GW BOUNDARY FLOW =             35.65

   INFLOWS - OUTFLOWS =        -521786.03     INFLOWS - OUTFLOWS =         -24741.97
             --------                                   --------

 TOTAL STORAGE CHANGE =        -520079.66         STORAGE CHANGE =         -24742.99
       --------------                             --------------
         LAND SURFACE =          67215.41           LAND SURFACE =         -45889.70
            SOIL ZONE =         909962.23              SOIL ZONE =          33566.40
     UNSATURATED ZONE =       -2063917.93       UNSATURATED ZONE =         -16538.70
       SATURATED ZONE =         566660.63         SATURATED ZONE =           4119.01

 OVERALL BUDGET ERROR =          -1706.37           BUDGET ERROR =              1.01


  PERCENT DISCREPANCY =             -0.09    PERCENT DISCREPANCY =              0.00



1
 SUMMARY VOLUMETRIC BUDGET FOR GSFLOW 
 DATE: 12 16 1990              CUMULATIVE TIME STEP:      16
 MODFLOW STRESS PERIOD      4     CURRENT TIME STEP:      77     ITERATIONS:       6

 -----------------------------------------------------------------------------------

   CUMULATIVE VOLUMES               L**3   RATES FOR THIS TIME STEP           L**3/T
   ------------------                      ------------------------

                                     IN                                         IN
                                     --                                         --
        PRECIPITATION =        1804962.84          PRECIPITATION =                  
           STREAMFLOW =                               STREAMFLOW =                  
     GW BOUNDARY FLOW =                         GW BOUNDARY FLOW =                  


                                    OUT                                        OUT
                                    ---                                        ---
   EVAPOTRANSPIRATION =        1325039.29     EVAPOTRANSPIRATION =                  
           STREAMFLOW =         750629.26             STREAMFLOW =          11407.42
     GW BOUNDARY FLOW =           2771.58       GW BOUNDARY FLOW =             35.61

   INFLOWS - OUTFLOWS =        -273477.29     INFLOWS - OUTFLOWS =         -11443.03
             --------                                   --------

 TOTAL STORAGE CHANGE =        -271782.11         STORAGE CHANGE =         -11443.88
       --------------                             --------------
         LAND SURFACE =         252566.26           LAND SURFACE =                  
            SOIL ZONE =        1055513.09              SOIL ZONE =            150.10
     UNSATURATED ZONE =       -2177611.26       UNSATURATED ZONE =         -15985.66
       SATURATED ZONE =         597749.79         SATURATED ZONE =           4391.67

 OVERALL BUDGET ERROR =          -1695.18           BUDGET ERROR =              0.85


  PERCENT DISCREPANCY =             -0.08    PERCENT DISCREPANCY =              0.01



1
 SUMMARY VOLUMETRIC BUDGET FOR GSFLOW 
 DATE: 12 23 1990              CUMULATIVE TIME STEP:      23
 MODFLOW STRESS PERIOD      4     CURRENT TIME STEP:      84     ITERATIONS:       6

 -----------------------------------------------------------------------------------

   CUMULATIVE VOLUMES               L**3   RATES FOR THIS TIME STEP           L**3/T
   ------------------                      ------------------------

                                     IN                                         IN
                                     --                                         --
        PRECIPITATION =        2276236.55          PRECIPITATION =                  
           STREAMFLOW =                               STREAMFLOW =                  
     GW BOUNDARY FLOW =              0.08       GW BOUNDARY FLOW =              0.04


                                    OUT                                        OUT
                                    ---                                        ---
   EVAPOTRANSPIRATION =        1326096.90     EVAPOTRANSPIRATION =                  
           STREAMFLOW =         830908.83             STREAMFLOW =          11507.03
     GW BOUNDARY FLOW =           3020.61       GW BOUNDARY FLOW =             35.57

   INFLOWS - OUTFLOWS =         116210.29     INFLOWS - OUTFLOWS =         -11542.56
             --------                                   --------

 TOTAL STORAGE CHANGE =         117904.26         STORAGE CHANGE =         -11542.46
       --------------                             --------------
         LAND SURFACE =         722784.34           LAND SURFACE =                  
            SOIL ZONE =        1056606.33              SOIL ZONE =            159.74
     UNSATURATED ZONE =       -2287052.02       UNSATURATED ZONE =         -15388.11
       SATURATED ZONE =         625565.62         SATURATED ZONE =           3685.91

 OVERALL BUDGET ERROR =          -1693.96           BUDGET ERROR =             -0.10


  PERCENT DISCREPANCY =             -0.07    PERCENT DISCREPANCY =             -0.00



1
 SUMMARY VOLUMETRIC BUDGET FOR GSFLOW 
 DATE: 12 30 1990              CUMULATIVE TIME STEP:      30
 MODFLOW STRESS PERIOD      4     CURRENT TIME STEP:      91     ITERATIONS:       5

 -----------------------------------------------------------------------------------

   CUMULATIVE VOLUMES               L**3   RATES FOR THIS TIME STEP           L**3/T
   ------------------                      ------------------------

                                     IN                                         IN
                                     --                                         --
        PRECIPITATION =        2276236.55          PRECIPITATION =                  
           STREAMFLOW =                               STREAMFLOW =                  
     GW BOUNDARY FLOW =              0.77       GW BOUNDARY FLOW =              0.14


                                    OUT                                        OUT
                                    ---                                        ---
   EVAPOTRANSPIRATION =        1326664.40     EVAPOTRANSPIRATION =                  
           STREAMFLOW =         911862.04             STREAMFLOW =          11605.80
     GW BOUNDARY FLOW =           3269.72       GW BOUNDARY FLOW =             35.60

   INFLOWS - OUTFLOWS =          34441.15     INFLOWS - OUTFLOWS =         -11641.26
             --------                                   --------

 TOTAL STORAGE CHANGE =          36143.20         STORAGE CHANGE =         -11639.32
       --------------                             --------------
         LAND SURFACE =         722216.94           LAND SURFACE =                  
            SOIL ZONE =        1057770.90              SOIL ZONE =            171.72
     UNSATURATED ZONE =       -2392590.53       UNSATURATED ZONE =         -14848.23
       SATURATED ZONE =         648745.88         SATURATED ZONE =           3037.19

 OVERALL BUDGET ERROR =          -1702.05           BUDGET ERROR =             -1.94


  PERCENT DISCREPANCY =             -0.07    PERCENT DISCREPANCY =             -0.02



1
 SUMMARY VOLUMETRIC BUDGET FOR GSFLOW 
 DATE: 01 06 1991              CUMULATIVE TIME STEP:       6
 MODFLOW STRESS PERIOD      5     CURRENT TIME STEP:      98     ITERATIONS:       5

 -----------------------------------------------------------------------------------

   CUMULATIVE VOLUMES               L**3   RATES FOR THIS TIME STEP           L**3/T
   ------------------                      ------------------------

                                     IN                                         IN
                                     --                                         --
        PRECIPITATION =        2276236.55          PRECIPITATION =                  
           STREAMFLOW =                               STREAMFLOW =                  
     GW BOUNDARY FLOW =              2.09       GW BOUNDARY FLOW =              0.22


                                    OUT                                        OUT
                                    ---                                        ---
   EVAPOTRANSPIRATION =        1353665.44     EVAPOTRANSPIRATION =           3180.56
           STREAMFLOW =         993448.99             STREAMFLOW =          11685.65
     GW BOUNDARY FLOW =           3519.65       GW BOUNDARY FLOW =             35.75

   INFLOWS - OUTFLOWS =         -74395.45     INFLOWS - OUTFLOWS =         -14901.73
             --------                                   --------

 TOTAL STORAGE CHANGE =         -72670.97         STORAGE CHANGE =         -14897.71
       --------------                             --------------
         LAND SURFACE =         592099.77           LAND SURFACE =          -8106.31
            SOIL ZONE =        1162161.07              SOIL ZONE =           5109.03
     UNSATURATED ZONE =       -2494159.86       UNSATURATED ZONE =         -14281.30
       SATURATED ZONE =         667228.06         SATURATED ZONE =           2380.86

 OVERALL BUDGET ERROR =          -1724.48           BUDGET ERROR =             -4.02


  PERCENT DISCREPANCY =             -0.07    PERCENT DISCREPANCY =             -0.03



1
 SUMMARY VOLUMETRIC BUDGET FOR GSFLOW 
 DATE: 01 13 1991              CUMULATIVE TIME STEP:      13
 MODFLOW STRESS PERIOD      5     CURRENT TIME STEP:     105     ITERATIONS:       6

 -----------------------------------------------------------------------------------

   CUMULATIVE VOLUMES               L**3   RATES FOR THIS TIME STEP           L**3/T
   ------------------                      ------------------------

                                     IN                                         IN
                                     --                                         --
        PRECIPITATION =        2596386.94          PRECIPITATION =          10327.43
           STREAMFLOW =                               STREAMFLOW =                  
     GW BOUNDARY FLOW =              4.01       GW BOUNDARY FLOW =              0.31


                                    OUT                                        OUT
                                    ---                                        ---
   EVAPOTRANSPIRATION =        1420461.24     EVAPOTRANSPIRATION =          18635.50
           STREAMFLOW =        1075213.16             STREAMFLOW =          11595.74
     GW BOUNDARY FLOW =           3769.86       GW BOUNDARY FLOW =             35.73

   INFLOWS - OUTFLOWS =          96946.68     INFLOWS - OUTFLOWS =         -19939.22
             --------                                   --------

 TOTAL STORAGE CHANGE =          98701.21         STORAGE CHANGE =         -19936.36
       --------------                             --------------
         LAND SURFACE =         529885.07           LAND SURFACE =        -135264.71
            SOIL ZONE =        1480372.89              SOIL ZONE =         127944.43
     UNSATURATED ZONE =       -2591709.30       UNSATURATED ZONE =         -13727.01
       SATURATED ZONE =         680152.55         SATURATED ZONE =           1110.94

 OVERALL BUDGET ERROR =          -1754.52           BUDGET ERROR =             -2.87


  PERCENT DISCREPANCY =             -0.07    PERCENT DISCREPANCY =             -0.01



1
 SUMMARY VOLUMETRIC BUDGET FOR GSFLOW 
 DATE: 01 20 1991              CUMULATIVE TIME STEP:      20
 MODFLOW STRESS PERIOD      5     CURRENT TIME STEP:     112     ITERATIONS:       5

 -----------------------------------------------------------------------------------

   CUMULATIVE VOLUMES               L**3   RATES FOR THIS TIME STEP           L**3/T
   ------------------                      ------------------------

                                     IN                                         IN
                                     --                                         --
        PRECIPITATION =        2596386.94          PRECIPITATION =                  
           STREAMFLOW =                               STREAMFLOW =                  
     GW BOUNDARY FLOW =              6.54       GW BOUNDARY FLOW =              0.40


                                    OUT                                        OUT
                                    ---                                        ---
   EVAPOTRANSPIRATION =        1497594.59     EVAPOTRANSPIRATION =           2455.52
           STREAMFLOW =        1157536.66             STREAMFLOW =          11793.49
     GW BOUNDARY FLOW =           4020.10       GW BOUNDARY FLOW =             35.75

   INFLOWS - OUTFLOWS =         -62757.87     INFLOWS - OUTFLOWS =         -14284.36
             --------                                   --------

 TOTAL STORAGE CHANGE =         -60958.33         STORAGE CHANGE =         -14276.75
       --------------                             --------------
         LAND SURFACE =         356897.60           LAND SURFACE =           -433.81
            SOIL ZONE =        1578201.17              SOIL ZONE =          -1802.15
     UNSATURATED ZONE =       -2685371.67       UNSATURATED ZONE =         -13154.34
       SATURATED ZONE =         689314.57         SATURATED ZONE =           1113.55

 OVERALL BUDGET ERROR =          -1799.54           BUDGET ERROR =             -7.60


  PERCENT DISCREPANCY =             -0.07    PERCENT DISCREPANCY =             -0.05



1
 SUMMARY VOLUMETRIC BUDGET FOR GSFLOW 
 DATE: 01 27 1991              CUMULATIVE TIME STEP:      27
 MODFLOW STRESS PERIOD      5     CURRENT TIME STEP:     119     ITERATIONS:       5

 -----------------------------------------------------------------------------------

   CUMULATIVE VOLUMES               L**3   RATES FOR THIS TIME STEP           L**3/T
   ------------------                      ------------------------

                                     IN                                         IN
                                     --                                         --
        PRECIPITATION =        2596386.94          PRECIPITATION =                  
           STREAMFLOW =                               STREAMFLOW =                  
     GW BOUNDARY FLOW =              9.64       GW BOUNDARY FLOW =              0.48


                                    OUT                                        OUT
                                    ---                                        ---
   EVAPOTRANSPIRATION =        1523479.63     EVAPOTRANSPIRATION =           1704.56
           STREAMFLOW =        1240302.21             STREAMFLOW =          11858.54
     GW BOUNDARY FLOW =           4270.30       GW BOUNDARY FLOW =             35.74

   INFLOWS - OUTFLOWS =        -171655.55     INFLOWS - OUTFLOWS =         -13598.36
             --------                                   --------

 TOTAL STORAGE CHANGE =        -169796.96         STORAGE CHANGE =         -13589.36
       --------------                             --------------
         LAND SURFACE =         323033.09           LAND SURFACE =           -547.84
            SOIL ZONE =        1587922.33              SOIL ZONE =           -949.00
     UNSATURATED ZONE =       -2775538.22       UNSATURATED ZONE =         -12668.54
       SATURATED ZONE =         694785.83         SATURATED ZONE =            576.03

 OVERALL BUDGET ERROR =          -1858.59           BUDGET ERROR =             -9.01


  PERCENT DISCREPANCY =             -0.07    PERCENT DISCREPANCY =             -0.07



1
 SUMMARY VOLUMETRIC BUDGET FOR GSFLOW 
 DATE: 02 03 1991              CUMULATIVE TIME STEP:       3
 MODFLOW STRESS PERIOD      6     CURRENT TIME STEP:     126     ITERATIONS:       5

 -----------------------------------------------------------------------------------

   CUMULATIVE VOLUMES               L**3   RATES FOR THIS TIME STEP           L**3/T
   ------------------                      ------------------------

                                     IN                                         IN
                                     --                                         --
        PRECIPITATION =        3228422.31          PRECIPITATION =          30459.53
           STREAMFLOW =                               STREAMFLOW =                  
     GW BOUNDARY FLOW =             13.29       GW BOUNDARY FLOW =              0.55


                                    OUT                                        OUT
                                    ---                                        ---
   EVAPOTRANSPIRATION =        1630565.24     EVAPOTRANSPIRATION =          21417.82
           STREAMFLOW =        1323417.61             STREAMFLOW =          11899.38
     GW BOUNDARY FLOW =           4520.43       GW BOUNDARY FLOW =             35.73

   INFLOWS - OUTFLOWS =         269932.33     INFLOWS - OUTFLOWS =          -2892.84
             --------                                   --------

 TOTAL STORAGE CHANGE =         271859.74         STORAGE CHANGE =          -2882.52
       --------------                             --------------
         LAND SURFACE =         157683.43           LAND SURFACE =         -26376.35
            SOIL ZONE =        2280894.14              SOIL ZONE =          35777.77
     UNSATURATED ZONE =       -2862406.29       UNSATURATED ZONE =         -12198.10
       SATURATED ZONE =         695688.46         SATURATED ZONE =            -85.85

 OVERALL BUDGET ERROR =          -1927.41           BUDGET ERROR =            -10.32


  PERCENT DISCREPANCY =             -0.06    PERCENT DISCREPANCY =             -0.03



1
 SUMMARY VOLUMETRIC BUDGET FOR GSFLOW 
 DATE: 02 10 1991              CUMULATIVE TIME STEP:      10
 MODFLOW STRESS PERIOD      6     CURRENT TIME STEP:     133     ITERATIONS:       5

 -----------------------------------------------------------------------------------

   CUMULATIVE VOLUMES               L**3   RATES FOR THIS TIME STEP           L**3/T
   ------------------                      ------------------------

                                     IN                                         IN
                                     --                                         --
        PRECIPITATION =        3510173.01          PRECIPITATION =                  
           STREAMFLOW =                               STREAMFLOW =                  
     GW BOUNDARY FLOW =             17.47       GW BOUNDARY FLOW =              0.63


                                    OUT                                        OUT
                                    ---                                        ---
   EVAPOTRANSPIRATION =        1797984.33     EVAPOTRANSPIRATION =          25651.58
           STREAMFLOW =        1405464.08             STREAMFLOW =          11877.14
     GW BOUNDARY FLOW =           4770.41       GW BOUNDARY FLOW =             35.71

   INFLOWS - OUTFLOWS =         301971.66     INFLOWS - OUTFLOWS =         -37563.80
             --------                                   --------

 TOTAL STORAGE CHANGE =         303933.99         STORAGE CHANGE =         -37552.22
       --------------                             --------------
         LAND SURFACE =          75877.11           LAND SURFACE =          -8469.89
            SOIL ZONE =        2478983.40              SOIL ZONE =         -16900.52
     UNSATURATED ZONE =       -2945780.30       UNSATURATED ZONE =         -11726.15
       SATURATED ZONE =         694853.77         SATURATED ZONE =           -455.66

 OVERALL BUDGET ERROR =          -1962.32           BUDGET ERROR =            -11.58


  PERCENT DISCREPANCY =             -0.06    PERCENT DISCREPANCY =             -0.03



1
 SUMMARY VOLUMETRIC BUDGET FOR GSFLOW 
 DATE: 02 17 1991              CUMULATIVE TIME STEP:      17
 MODFLOW STRESS PERIOD      6     CURRENT TIME STEP:     140     ITERATIONS:       5

 -----------------------------------------------------------------------------------

   CUMULATIVE VOLUMES               L**3   RATES FOR THIS TIME STEP           L**3/T
   ------------------                      ------------------------

                                     IN                                         IN
                                     --                                         --
        PRECIPITATION =        3510173.01          PRECIPITATION =                  
           STREAMFLOW =                               STREAMFLOW =                  
     GW BOUNDARY FLOW =             22.14       GW BOUNDARY FLOW =              0.70


                                    OUT                                        OUT
                                    ---                                        ---
   EVAPOTRANSPIRATION =        2041019.85     EVAPOTRANSPIRATION =          23720.01
           STREAMFLOW =        1488822.60             STREAMFLOW =          11929.22
     GW BOUNDARY FLOW =           5020.31       GW BOUNDARY FLOW =             35.67

   INFLOWS - OUTFLOWS =         -24667.61     INFLOWS - OUTFLOWS =         -35684.21
             --------                                   --------

 TOTAL STORAGE CHANGE =         -22615.98         STORAGE CHANGE =         -35670.86
       --------------                             --------------
         LAND SURFACE =          17890.99           LAND SURFACE =          -1143.67
            SOIL ZONE =        2295635.84              SOIL ZONE =         -22415.05
     UNSATURATED ZONE =       -3025599.93       UNSATURATED ZONE =         -11116.87
       SATURATED ZONE =         689457.12         SATURATED ZONE =           -995.27

 OVERALL BUDGET ERROR =          -2051.63           BUDGET ERROR =            -13.35


  PERCENT DISCREPANCY =             -0.06    PERCENT DISCREPANCY =             -0.04



1
 SUMMARY VOLUMETRIC BUDGET FOR GSFLOW 
 DATE: 02 24 1991              CUMULATIVE TIME STEP:      24
 MODFLOW STRESS PERIOD      6     CURRENT TIME STEP:     147     ITERATIONS:       5

 -----------------------------------------------------------------------------------

   CUMULATIVE VOLUMES               L**3   RATES FOR THIS TIME STEP           L**3/T
   ------------------                      ------------------------

                                     IN                                         IN
                                     --                                         --
        PRECIPITATION =        3510173.01          PRECIPITATION =                  
           STREAMFLOW =                               STREAMFLOW =                  
     GW BOUNDARY FLOW =             27.28       GW BOUNDARY FLOW =              0.76


                                    OUT                                        OUT
                                    ---                                        ---
   EVAPOTRANSPIRATION =        2254700.14     EVAPOTRANSPIRATION =          21654.84
           STREAMFLOW =        1571139.31             STREAMFLOW =          11926.98
     GW BOUNDARY FLOW =           5269.31       GW BOUNDARY FLOW =             35.50

   INFLOWS - OUTFLOWS =        -320908.45     INFLOWS - OUTFLOWS =         -33616.56
             --------                                   --------

 TOTAL STORAGE CHANGE =        -318809.77         STORAGE CHANGE =         -33601.48
       --------------                             --------------
         LAND SURFACE =           7435.72           LAND SURFACE =           -217.69
            SOIL ZONE =        2093737.42              SOIL ZONE =         -21231.73
     UNSATURATED ZONE =       -3101798.84       UNSATURATED ZONE =         -10703.47
       SATURATED ZONE =         681815.93         SATURATED ZONE =          -1448.58

 OVERALL BUDGET ERROR =          -2098.69           BUDGET ERROR =            -15.08


  PERCENT DISCREPANCY =             -0.05    PERCENT DISCREPANCY =             -0.04



1
 SUMMARY VOLUMETRIC BUDGET FOR GSFLOW 
 DATE: 03 03 1991              CUMULATIVE TIME STEP:       3
 MODFLOW STRESS PERIOD      7     CURRENT TIME STEP:     154     ITERATIONS:       5

 -----------------------------------------------------------------------------------

   CUMULATIVE VOLUMES               L**3   RATES FOR THIS TIME STEP           L**3/T
   ------------------                      ------------------------

                                     IN                                         IN
                                     --                                         --
        PRECIPITATION =        6220189.63          PRECIPITATION =        1243187.24
           STREAMFLOW =                               STREAMFLOW =                  
     GW BOUNDARY FLOW =             32.88       GW BOUNDARY FLOW =              0.83


                                    OUT                                        OUT
                                    ---                                        ---
   EVAPOTRANSPIRATION =        2406850.46     EVAPOTRANSPIRATION =           8347.01
           STREAMFLOW =        1654430.74             STREAMFLOW =          11832.34
     GW BOUNDARY FLOW =           5517.15       GW BOUNDARY FLOW =             35.32

   INFLOWS - OUTFLOWS =        2153424.17     INFLOWS - OUTFLOWS =        1222973.40
             --------                                   --------

 TOTAL STORAGE CHANGE =        2155624.15         STORAGE CHANGE =        1222989.74
       --------------                             --------------
         LAND SURFACE =        2352423.56           LAND SURFACE =         893797.52
            SOIL ZONE =        2309783.91              SOIL ZONE =         341855.52
     UNSATURATED ZONE =       -3175032.90       UNSATURATED ZONE =         -10288.07
       SATURATED ZONE =         668449.57         SATURATED ZONE =          -2375.23

 OVERALL BUDGET ERROR =          -2199.97           BUDGET ERROR =            -16.34


  PERCENT DISCREPANCY =             -0.04    PERCENT DISCREPANCY =             -0.00



1
 SUMMARY VOLUMETRIC BUDGET FOR GSFLOW 
 DATE: 03 10 1991              CUMULATIVE TIME STEP:      10
 MODFLOW STRESS PERIOD      7     CURRENT TIME STEP:     161     ITERATIONS:       5

 -----------------------------------------------------------------------------------

   CUMULATIVE VOLUMES               L**3   RATES FOR THIS TIME STEP           L**3/T
   ------------------                      ------------------------

                                     IN                                         IN
                                     --                                         --
        PRECIPITATION =        8746030.42          PRECIPITATION =          32888.55
           STREAMFLOW =                               STREAMFLOW =                  
     GW BOUNDARY FLOW =             38.92       GW BOUNDARY FLOW =              0.89


                                    OUT                                        OUT
                                    ---                                        ---
   EVAPOTRANSPIRATION =        2470972.63     EVAPOTRANSPIRATION =           7391.13
           STREAMFLOW =        1757734.03             STREAMFLOW =          12557.54
     GW BOUNDARY FLOW =           5764.45       GW BOUNDARY FLOW =             35.23

   INFLOWS - OUTFLOWS =        4511598.24     INFLOWS - OUTFLOWS =          12905.54
             --------                                   --------

 TOTAL STORAGE CHANGE =        4513875.54         STORAGE CHANGE =          12923.41
       --------------                             --------------
         LAND SURFACE =        2489799.29           LAND SURFACE =         -20139.51
            SOIL ZONE =        4562732.66              SOIL ZONE =          36697.56
     UNSATURATED ZONE =       -3192711.72       UNSATURATED ZONE =          -1399.23
       SATURATED ZONE =         654055.30         SATURATED ZONE =          -2235.41

 OVERALL BUDGET ERROR =          -2277.30           BUDGET ERROR =            -17.87


  PERCENT DISCREPANCY =             -0.03    PERCENT DISCREPANCY =             -0.05



1
 SUMMARY VOLUMETRIC BUDGET FOR GSFLOW 
 DATE: 03 17 1991              CUMULATIVE TIME STEP:      17
 MODFLOW STRESS PERIOD      7     CURRENT TIME STEP:     168     ITERATIONS:       5

 -----------------------------------------------------------------------------------

   CUMULATIVE VOLUMES               L**3   RATES FOR THIS TIME STEP           L**3/T
   ------------------                      ------------------------

                                     IN                                         IN
                                     --                                         --
        PRECIPITATION =        9897129.71          PRECIPITATION =         157865.04
           STREAMFLOW =                               STREAMFLOW =                  
     GW BOUNDARY FLOW =             45.38       GW BOUNDARY FLOW =              0.95


                                    OUT                                        OUT
                                    ---                                        ---
   EVAPOTRANSPIRATION =        2494437.55     EVAPOTRANSPIRATION =           6885.28
           STREAMFLOW =        1846958.03             STREAMFLOW =          12802.16
     GW BOUNDARY FLOW =           6010.62       GW BOUNDARY FLOW =             35.11

   INFLOWS - OUTFLOWS =        5549768.90     INFLOWS - OUTFLOWS =         138143.44
             --------                                   --------

 TOTAL STORAGE CHANGE =        5552155.74         STORAGE CHANGE =         138162.58
       --------------                             --------------
         LAND SURFACE =        3617387.87           LAND SURFACE =         151296.14
            SOIL ZONE =        4500592.16              SOIL ZONE =          -8506.16
     UNSATURATED ZONE =       -3204298.41       UNSATURATED ZONE =          -2066.80
       SATURATED ZONE =         638474.12         SATURATED ZONE =          -2560.60

 OVERALL BUDGET ERROR =          -2386.84           BUDGET ERROR =            -19.13


  PERCENT DISCREPANCY =             -0.02    PERCENT DISCREPANCY =             -0.01



1
 SUMMARY VOLUMETRIC BUDGET FOR GSFLOW 
 DATE: 03 24 1991              CUMULATIVE TIME STEP:      24
 MODFLOW STRESS PERIOD      7     CURRENT TIME STEP:     175     ITERATIONS:       5

 -----------------------------------------------------------------------------------

   CUMULATIVE VOLUMES               L**3   RATES FOR THIS TIME STEP           L**3/T
   ------------------                      ------------------------

                                     IN                                         IN
                                     --                                         --
        PRECIPITATION =        1.1673D+07          PRECIPITATION =        1230031.83
           STREAMFLOW =                               STREAMFLOW =                  
     GW BOUNDARY FLOW =             52.25       GW BOUNDARY FLOW =              1.01


                                    OUT                                        OUT
                                    ---                                        ---
   EVAPOTRANSPIRATION =        2529074.20     EVAPOTRANSPIRATION =           4289.66
           STREAMFLOW =        1938146.63             STREAMFLOW =          13195.30
     GW BOUNDARY FLOW =           6255.91       GW BOUNDARY FLOW =             34.99

   INFLOWS - OUTFLOWS =        7199687.01     INFLOWS - OUTFLOWS =        1212512.88
             --------                                   --------

 TOTAL STORAGE CHANGE =        7202188.26         STORAGE CHANGE =        1212532.46
       --------------                             --------------
         LAND SURFACE =        5347521.52           LAND SURFACE =        1227877.70
            SOIL ZONE =        4453878.06              SOIL ZONE =         -10394.30
     UNSATURATED ZONE =       -3219961.92       UNSATURATED ZONE =          -2382.58
       SATURATED ZONE =         620750.60         SATURATED ZONE =          -2568.37

 OVERALL BUDGET ERROR =          -2501.24           BUDGET ERROR =            -19.57


  PERCENT DISCREPANCY =             -0.02    PERCENT DISCREPANCY =             -0.00



1
 SUMMARY VOLUMETRIC BUDGET FOR GSFLOW 
 DATE: 03 31 1991              CUMULATIVE TIME STEP:      31
 MODFLOW STRESS PERIOD      7     CURRENT TIME STEP:     182     ITERATIONS:       5

 -----------------------------------------------------------------------------------

   CUMULATIVE VOLUMES               L**3   RATES FOR THIS TIME STEP           L**3/T
   ------------------                      ------------------------

                                     IN                                         IN
                                     --                                         --
        PRECIPITATION =        1.2495D+07          PRECIPITATION =                  
           STREAMFLOW =                               STREAMFLOW =                  
     GW BOUNDARY FLOW =             59.51       GW BOUNDARY FLOW =              1.06


                                    OUT                                        OUT
                                    ---                                        ---
   EVAPOTRANSPIRATION =        2650093.46     EVAPOTRANSPIRATION =          47925.31
           STREAMFLOW =        2033210.83             STREAMFLOW =          14246.78
     GW BOUNDARY FLOW =           6500.52       GW BOUNDARY FLOW =             34.92

   INFLOWS - OUTFLOWS =        7805579.99     INFLOWS - OUTFLOWS =         -62205.95
             --------                                   --------

 TOTAL STORAGE CHANGE =        7808219.73         STORAGE CHANGE =         -62185.90
       --------------                             --------------
         LAND SURFACE =        5892155.22           LAND SURFACE =        -150773.77
            SOIL ZONE =        4549217.26              SOIL ZONE =          92401.26
     UNSATURATED ZONE =       -3235558.05       UNSATURATED ZONE =          -1173.23
       SATURATED ZONE =         602405.30         SATURATED ZONE =          -2640.16

 OVERALL BUDGET ERROR =          -2639.74           BUDGET ERROR =            -20.05


  PERCENT DISCREPANCY =             -0.02    PERCENT DISCREPANCY =             -0.03



1
 SUMMARY VOLUMETRIC BUDGET FOR GSFLOW 
 DATE: 04 07 1991              CUMULATIVE TIME STEP:       7
 MODFLOW STRESS PERIOD      8     CURRENT TIME STEP:     189     ITERATIONS:       6

 -----------------------------------------------------------------------------------

   CUMULATIVE VOLUMES               L**3   RATES FOR THIS TIME STEP           L**3/T
   ------------------                      ------------------------

                                     IN                                         IN
                                     --                                         --
        PRECIPITATION =        1.3018D+07          PRECIPITATION =                  
           STREAMFLOW =                               STREAMFLOW =                  
     GW BOUNDARY FLOW =             67.15       GW BOUNDARY FLOW =              1.11


                                    OUT                                        OUT
                                    ---                                        ---
   EVAPOTRANSPIRATION =        2957976.73     EVAPOTRANSPIRATION =          15898.60
           STREAMFLOW =        2262230.61             STREAMFLOW =          42580.61
     GW BOUNDARY FLOW =           6746.61       GW BOUNDARY FLOW =             35.32

   INFLOWS - OUTFLOWS =        7790849.93     INFLOWS - OUTFLOWS =         -58513.42
             --------                                   --------

 TOTAL STORAGE CHANGE =        7793575.63         STORAGE CHANGE =         -58504.85
       --------------                             --------------
         LAND SURFACE =        4252635.06           LAND SURFACE =         -72897.15
            SOIL ZONE =        6155592.11              SOIL ZONE =           5141.65
     UNSATURATED ZONE =       -3200905.81       UNSATURATED ZONE =          11081.17
       SATURATED ZONE =         586254.27         SATURATED ZONE =          -1830.52

 OVERALL BUDGET ERROR =          -2725.70           BUDGET ERROR =             -8.57


  PERCENT DISCREPANCY =             -0.02    PERCENT DISCREPANCY =             -0.01



1
 SUMMARY VOLUMETRIC BUDGET FOR GSFLOW 
 DATE: 04 14 1991              CUMULATIVE TIME STEP:      14
 MODFLOW STRESS PERIOD      8     CURRENT TIME STEP:     196     ITERATIONS:       7

 -----------------------------------------------------------------------------------

   CUMULATIVE VOLUMES               L**3   RATES FOR THIS TIME STEP           L**3/T
   ------------------                      ------------------------

                                     IN                                         IN
                                     --                                         --
        PRECIPITATION =        1.3018D+07          PRECIPITATION =                  
           STREAMFLOW =                               STREAMFLOW =                  
     GW BOUNDARY FLOW =             75.10       GW BOUNDARY FLOW =              1.16


                                    OUT                                        OUT
                                    ---                                        ---
   EVAPOTRANSPIRATION =        3141899.56     EVAPOTRANSPIRATION =          42060.22
           STREAMFLOW =        2689660.01             STREAMFLOW =          74204.20
     GW BOUNDARY FLOW =           6995.01       GW BOUNDARY FLOW =             35.60

   INFLOWS - OUTFLOWS =        7179257.26     INFLOWS - OUTFLOWS =        -116298.86
             --------                                   --------

 TOTAL STORAGE CHANGE =        7182016.46         STORAGE CHANGE =        -116295.95
       --------------                             --------------
         LAND SURFACE =        3592422.63           LAND SURFACE =        -191140.97
            SOIL ZONE =        6139131.68              SOIL ZONE =          65693.29
     UNSATURATED ZONE =       -3127156.85       UNSATURATED ZONE =          10061.36
       SATURATED ZONE =         577619.00         SATURATED ZONE =           -909.62

 OVERALL BUDGET ERROR =          -2759.20           BUDGET ERROR =             -2.90


  PERCENT DISCREPANCY =             -0.02    PERCENT DISCREPANCY =             -0.00



1
 SUMMARY VOLUMETRIC BUDGET FOR GSFLOW 
 DATE: 04 21 1991              CUMULATIVE TIME STEP:      21
 MODFLOW STRESS PERIOD      8     CURRENT TIME STEP:     203     ITERATIONS:       9

 -----------------------------------------------------------------------------------

   CUMULATIVE VOLUMES               L**3   RATES FOR THIS TIME STEP           L**3/T
   ------------------                      ------------------------

                                     IN                                         IN
                                     --                                         --
        PRECIPITATION =        1.3034D+07          PRECIPITATION =                  
           STREAMFLOW =                               STREAMFLOW =                  
     GW BOUNDARY FLOW =             83.37       GW BOUNDARY FLOW =              1.20


                                    OUT                                        OUT
                                    ---                                        ---
   EVAPOTRANSPIRATION =        3395520.57     EVAPOTRANSPIRATION =          46843.68
           STREAMFLOW =        3242660.01             STREAMFLOW =          90944.48
     GW BOUNDARY FLOW =           7244.09       GW BOUNDARY FLOW =             35.67

   INFLOWS - OUTFLOWS =        6388720.80     INFLOWS - OUTFLOWS =        -137822.63
             --------                                   --------

 TOTAL STORAGE CHANGE =        6391495.26         STORAGE CHANGE =        -137821.66
       --------------                             --------------
         LAND SURFACE =        2435410.73           LAND SURFACE =        -213938.54
            SOIL ZONE =        6436221.17              SOIL ZONE =          64507.61
     UNSATURATED ZONE =       -3052957.53       UNSATURATED ZONE =          12027.82
       SATURATED ZONE =         572820.90         SATURATED ZONE =           -418.55

 OVERALL BUDGET ERROR =          -2774.46           BUDGET ERROR =             -0.97


  PERCENT DISCREPANCY =             -0.02    PERCENT DISCREPANCY =             -0.00



1
 SUMMARY VOLUMETRIC BUDGET FOR GSFLOW 
 DATE: 04 28 1991              CUMULATIVE TIME STEP:      28
 MODFLOW STRESS PERIOD      8     CURRENT TIME STEP:     210     ITERATIONS:       7

 -----------------------------------------------------------------------------------

   CUMULATIVE VOLUMES               L**3   RATES FOR THIS TIME STEP           L**3/T
   ------------------                      ------------------------

                                     IN                                         IN
                                     --                                         --
        PRECIPITATION =        1.3303D+07          PRECIPITATION =                  
           STREAMFLOW =                               STREAMFLOW =                  
     GW BOUNDARY FLOW =             91.90       GW BOUNDARY FLOW =              1.24


                                    OUT                                        OUT
                                    ---                                        ---
   EVAPOTRANSPIRATION =        3663622.53     EVAPOTRANSPIRATION =          58070.50
           STREAMFLOW =        3891059.57             STREAMFLOW =          92221.23
     GW BOUNDARY FLOW =           7493.45       GW BOUNDARY FLOW =             35.57

   INFLOWS - OUTFLOWS =        5741346.85     INFLOWS - OUTFLOWS =        -150326.07
             --------                                   --------

 TOTAL STORAGE CHANGE =        5744134.32         STORAGE CHANGE =        -150324.84
       --------------                             --------------
         LAND SURFACE =        1696862.83           LAND SURFACE =        -133863.59
            SOIL ZONE =        6443555.65              SOIL ZONE =         -28098.29
     UNSATURATED ZONE =       -2969049.54       UNSATURATED ZONE =          11445.56
       SATURATED ZONE =         572765.39         SATURATED ZONE =            191.48

 OVERALL BUDGET ERROR =          -2787.47           BUDGET ERROR =             -1.23


  PERCENT DISCREPANCY =             -0.02    PERCENT DISCREPANCY =             -0.00



1
 SUMMARY VOLUMETRIC BUDGET FOR GSFLOW 
 DATE: 05 05 1991              CUMULATIVE TIME STEP:       5
 MODFLOW STRESS PERIOD      9     CURRENT TIME STEP:     217     ITERATIONS:       7

 -----------------------------------------------------------------------------------

   CUMULATIVE VOLUMES               L**3   RATES FOR THIS TIME STEP           L**3/T
   ------------------                      ------------------------

                                     IN                                         IN
                                     --                                         --
        PRECIPITATION =        1.3510D+07          PRECIPITATION =                  
           STREAMFLOW =                               STREAMFLOW =                  
     GW BOUNDARY FLOW =            100.70       GW BOUNDARY FLOW =              1.27


                                    OUT                                        OUT
                                    ---                                        ---
   EVAPOTRANSPIRATION =        4040380.29     EVAPOTRANSPIRATION =          90182.26
           STREAMFLOW =        4462862.48             STREAMFLOW =          83089.70
     GW BOUNDARY FLOW =           7741.14       GW BOUNDARY FLOW =             35.33

   INFLOWS - OUTFLOWS =        4998824.92     INFLOWS - OUTFLOWS =        -173306.02
             --------                                   --------

 TOTAL STORAGE CHANGE =        5001620.15         STORAGE CHANGE =        -173305.37
       --------------                             --------------
         LAND SURFACE =        1003116.62           LAND SURFACE =        -147007.10
            SOIL ZONE =        6322315.60              SOIL ZONE =         -36512.91
     UNSATURATED ZONE =       -2896764.89       UNSATURATED ZONE =          10148.81
       SATURATED ZONE =         572952.82         SATURATED ZONE =             65.83

 OVERALL BUDGET ERROR =          -2795.24           BUDGET ERROR =             -0.65


  PERCENT DISCREPANCY =             -0.02    PERCENT DISCREPANCY =             -0.00



1
 SUMMARY VOLUMETRIC BUDGET FOR GSFLOW 
 DATE: 05 12 1991              CUMULATIVE TIME STEP:      12
 MODFLOW STRESS PERIOD      9     CURRENT TIME STEP:     224     ITERATIONS:       7

 -----------------------------------------------------------------------------------

   CUMULATIVE VOLUMES               L**3   RATES FOR THIS TIME STEP           L**3/T
   ------------------                      ------------------------

                                     IN                                         IN
                                     --                                         --
        PRECIPITATION =        1.4029D+07          PRECIPITATION =                  
           STREAMFLOW =                               STREAMFLOW =                  
     GW BOUNDARY FLOW =            109.76       GW BOUNDARY FLOW =              1.31


                                    OUT                                        OUT
                                    ---                                        ---
   EVAPOTRANSPIRATION =        4435767.56     EVAPOTRANSPIRATION =          68750.33
           STREAMFLOW =        4998425.31             STREAMFLOW =          85428.41
     GW BOUNDARY FLOW =           7987.17       GW BOUNDARY FLOW =             35.17

   INFLOWS - OUTFLOWS =        4587151.88     INFLOWS - OUTFLOWS =        -154212.60
             --------                                   --------

 TOTAL STORAGE CHANGE =        4589950.47         STORAGE CHANGE =        -154212.14
       --------------                             --------------
         LAND SURFACE =         555531.38           LAND SURFACE =        -204072.74
            SOIL ZONE =        6293696.92              SOIL ZONE =          40846.99
     UNSATURATED ZONE =       -2834925.85       UNSATURATED ZONE =           8725.30
       SATURATED ZONE =         575648.02         SATURATED ZONE =            288.31

 OVERALL BUDGET ERROR =          -2798.59           BUDGET ERROR =             -0.46


  PERCENT DISCREPANCY =             -0.02    PERCENT DISCREPANCY =             -0.00



1
 SUMMARY VOLUMETRIC BUDGET FOR GSFLOW 
 DATE: 05 19 1991              CUMULATIVE TIME STEP:      19
 MODFLOW STRESS PERIOD      9     CURRENT TIME STEP:     231     ITERATIONS:       7

 -----------------------------------------------------------------------------------

   CUMULATIVE VOLUMES               L**3   RATES FOR THIS TIME STEP           L**3/T
   ------------------                      ------------------------

                                     IN                                         IN
                                     --                                         --
        PRECIPITATION =        1.4365D+07          PRECIPITATION =                  
           STREAMFLOW =                               STREAMFLOW =                  
     GW BOUNDARY FLOW =            119.10       GW BOUNDARY FLOW =              1.35


                                    OUT                                        OUT
                                    ---                                        ---
   EVAPOTRANSPIRATION =        4874203.26     EVAPOTRANSPIRATION =          20369.32
           STREAMFLOW =        5444811.70             STREAMFLOW =          55167.67
     GW BOUNDARY FLOW =           8230.91       GW BOUNDARY FLOW =             34.64

   INFLOWS - OUTFLOWS =        4038251.54     INFLOWS - OUTFLOWS =         -75570.29
             --------                                   --------

 TOTAL STORAGE CHANGE =        4041050.22         STORAGE CHANGE =         -75570.63
       --------------                             --------------
         LAND SURFACE =         218834.82           LAND SURFACE =         -22220.84
            SOIL ZONE =        6030505.40              SOIL ZONE =         -59340.56
     UNSATURATED ZONE =       -2787189.59       UNSATURATED ZONE =           5427.86
       SATURATED ZONE =         578899.59         SATURATED ZONE =            562.91

 OVERALL BUDGET ERROR =          -2798.67           BUDGET ERROR =              0.34


  PERCENT DISCREPANCY =             -0.02    PERCENT DISCREPANCY =              0.00



1
 SUMMARY VOLUMETRIC BUDGET FOR GSFLOW 
 DATE: 05 26 1991              CUMULATIVE TIME STEP:      26
 MODFLOW STRESS PERIOD      9     CURRENT TIME STEP:     238     ITERATIONS:       6

 -----------------------------------------------------------------------------------

   CUMULATIVE VOLUMES               L**3   RATES FOR THIS TIME STEP           L**3/T
   ------------------                      ------------------------

                                     IN                                         IN
                                     --                                         --
        PRECIPITATION =        1.4426D+07          PRECIPITATION =                  
           STREAMFLOW =                               STREAMFLOW =                  
     GW BOUNDARY FLOW =            128.71       GW BOUNDARY FLOW =              1.39


                                    OUT                                        OUT
                                    ---                                        ---
   EVAPOTRANSPIRATION =        5558679.49     EVAPOTRANSPIRATION =          76940.71
           STREAMFLOW =        5748322.05             STREAMFLOW =          30985.90
     GW BOUNDARY FLOW =           8471.54       GW BOUNDARY FLOW =             34.12

   INFLOWS - OUTFLOWS =        3111153.23     INFLOWS - OUTFLOWS =        -107959.35
             --------                                   --------

 TOTAL STORAGE CHANGE =        3113950.40         STORAGE CHANGE =        -107958.54
       --------------                             --------------
         LAND SURFACE =          51939.66           LAND SURFACE =          -7710.54
            SOIL ZONE =        5248960.24              SOIL ZONE =         -99882.86
     UNSATURATED ZONE =       -2766991.63       UNSATURATED ZONE =           -121.34
       SATURATED ZONE =         580042.13         SATURATED ZONE =           -243.80

 OVERALL BUDGET ERROR =          -2797.17           BUDGET ERROR =             -0.81


  PERCENT DISCREPANCY =             -0.02    PERCENT DISCREPANCY =             -0.00



1
 SUMMARY VOLUMETRIC BUDGET FOR GSFLOW 
 DATE: 06 02 1991              CUMULATIVE TIME STEP:       2
 MODFLOW STRESS PERIOD     10     CURRENT TIME STEP:     245     ITERATIONS:       6

 -----------------------------------------------------------------------------------

   CUMULATIVE VOLUMES               L**3   RATES FOR THIS TIME STEP           L**3/T
   ------------------                      ------------------------

                                     IN                                         IN
                                     --                                         --
        PRECIPITATION =        1.4671D+07          PRECIPITATION =                  
           STREAMFLOW =                               STREAMFLOW =                  
     GW BOUNDARY FLOW =            138.61       GW BOUNDARY FLOW =              1.43


                                    OUT                                        OUT
                                    ---                                        ---
   EVAPOTRANSPIRATION =        6147006.18     EVAPOTRANSPIRATION =         127367.25
           STREAMFLOW =        5957931.95             STREAMFLOW =          25692.65
     GW BOUNDARY FLOW =           8709.63       GW BOUNDARY FLOW =             33.87

   INFLOWS - OUTFLOWS =        2557465.65     INFLOWS - OUTFLOWS =        -153092.34
             --------                                   --------

 TOTAL STORAGE CHANGE =        2560282.30         STORAGE CHANGE =        -153088.88
       --------------                             --------------
         LAND SURFACE =          18584.49           LAND SURFACE =          -3939.55
            SOIL ZONE =        4747490.15              SOIL ZONE =        -145068.67
     UNSATURATED ZONE =       -2781404.66       UNSATURATED ZONE =          -3164.33
       SATURATED ZONE =         575612.32         SATURATED ZONE =           -916.34

 OVERALL BUDGET ERROR =          -2816.65           BUDGET ERROR =             -3.45


  PERCENT DISCREPANCY =             -0.02    PERCENT DISCREPANCY =             -0.00



1
 SUMMARY VOLUMETRIC BUDGET FOR GSFLOW 
 DATE: 06 09 1991              CUMULATIVE TIME STEP:       9
 MODFLOW STRESS PERIOD     10     CURRENT TIME STEP:     252     ITERATIONS:       7

 -----------------------------------------------------------------------------------

   CUMULATIVE VOLUMES               L**3   RATES FOR THIS TIME STEP           L**3/T
   ------------------                      ------------------------

                                     IN                                         IN
                                     --                                         --
        PRECIPITATION =        1.4671D+07          PRECIPITATION =                  
           STREAMFLOW =                               STREAMFLOW =                  
     GW BOUNDARY FLOW =            148.80       GW BOUNDARY FLOW =              1.47


                                    OUT                                        OUT
                                    ---                                        ---
   EVAPOTRANSPIRATION =        6934226.15     EVAPOTRANSPIRATION =         172205.04
           STREAMFLOW =        6108902.31             STREAMFLOW =          18721.63
     GW BOUNDARY FLOW =           8945.58       GW BOUNDARY FLOW =             33.59

   INFLOWS - OUTFLOWS =        1619049.57     INFLOWS - OUTFLOWS =        -190958.79
             --------                                   --------

 TOTAL STORAGE CHANGE =        1621906.10         STORAGE CHANGE =        -190952.59
       --------------                             --------------
         LAND SURFACE =           3507.01           LAND SURFACE =          -2050.96
            SOIL ZONE =        3871920.29              SOIL ZONE =        -180295.01
     UNSATURATED ZONE =       -2818337.87       UNSATURATED ZONE =          -6479.20
       SATURATED ZONE =         564816.67         SATURATED ZONE =          -2127.43

 OVERALL BUDGET ERROR =          -2856.53           BUDGET ERROR =             -6.20


  PERCENT DISCREPANCY =             -0.02    PERCENT DISCREPANCY =             -0.00



1
 SUMMARY VOLUMETRIC BUDGET FOR GSFLOW 
 DATE: 06 16 1991              CUMULATIVE TIME STEP:      16
 MODFLOW STRESS PERIOD     10     CURRENT TIME STEP:     259     ITERATIONS:       6

 -----------------------------------------------------------------------------------

   CUMULATIVE VOLUMES               L**3   RATES FOR THIS TIME STEP           L**3/T
   ------------------                      ------------------------

                                     IN                                         IN
                                     --                                         --
        PRECIPITATION =        1.4671D+07          PRECIPITATION =                  
           STREAMFLOW =                               STREAMFLOW =                  
     GW BOUNDARY FLOW =            159.28       GW BOUNDARY FLOW =              1.51


                                    OUT                                        OUT
                                    ---                                        ---
   EVAPOTRANSPIRATION =        7949201.81     EVAPOTRANSPIRATION =         116806.26
           STREAMFLOW =        6226629.61             STREAMFLOW =          16252.24
     GW BOUNDARY FLOW =           9179.79       GW BOUNDARY FLOW =             33.38

   INFLOWS - OUTFLOWS =         486122.88     INFLOWS - OUTFLOWS =        -133090.37
             --------                                   --------

 TOTAL STORAGE CHANGE =         489043.34         STORAGE CHANGE =        -133079.50
       --------------                             --------------
         LAND SURFACE =             96.44           LAND SURFACE =            -47.78
            SOIL ZONE =        2847569.20              SOIL ZONE =        -113608.15
     UNSATURATED ZONE =       -2904398.57       UNSATURATED ZONE =         -16230.24
       SATURATED ZONE =         545776.27         SATURATED ZONE =          -3193.33

 OVERALL BUDGET ERROR =          -2920.47           BUDGET ERROR =            -10.87


  PERCENT DISCREPANCY =             -0.02    PERCENT DISCREPANCY =             -0.01



1
 SUMMARY VOLUMETRIC BUDGET FOR GSFLOW 
 DATE: 06 23 1991              CUMULATIVE TIME STEP:      23
 MODFLOW STRESS PERIOD     10     CURRENT TIME STEP:     266     ITERATIONS:       5

 -----------------------------------------------------------------------------------

   CUMULATIVE VOLUMES               L**3   RATES FOR THIS TIME STEP           L**3/T
   ------------------                      ------------------------

                                     IN                                         IN
                                     --                                         --
        PRECIPITATION =        1.4671D+07          PRECIPITATION =                  
           STREAMFLOW =                               STREAMFLOW =                  
     GW BOUNDARY FLOW =            169.85       GW BOUNDARY FLOW =              1.48


                                    OUT                                        OUT
                                    ---                                        ---
   EVAPOTRANSPIRATION =        8491578.95     EVAPOTRANSPIRATION =          38900.65
           STREAMFLOW =        6336887.80             STREAMFLOW =          15469.69
     GW BOUNDARY FLOW =           9412.81       GW BOUNDARY FLOW =             33.22

   INFLOWS - OUTFLOWS =        -166734.90     INFLOWS - OUTFLOWS =         -54402.08
             --------                                   --------

 TOTAL STORAGE CHANGE =        -163727.70         STORAGE CHANGE =         -54381.13
       --------------                             --------------
         LAND SURFACE =             13.79           LAND SURFACE =             -3.53
            SOIL ZONE =        2337846.41              SOIL ZONE =         -36350.80
     UNSATURATED ZONE =       -3017500.80       UNSATURATED ZONE =         -13220.24
       SATURATED ZONE =         515912.90         SATURATED ZONE =          -4806.56

 OVERALL BUDGET ERROR =          -3007.20           BUDGET ERROR =            -20.95


  PERCENT DISCREPANCY =             -0.02    PERCENT DISCREPANCY =             -0.04



1
 SUMMARY VOLUMETRIC BUDGET FOR GSFLOW 
 DATE: 06 30 1991              CUMULATIVE TIME STEP:      30
 MODFLOW STRESS PERIOD     10     CURRENT TIME STEP:     273     ITERATIONS:       6

 -----------------------------------------------------------------------------------

   CUMULATIVE VOLUMES               L**3   RATES FOR THIS TIME STEP           L**3/T
   ------------------                      ------------------------

                                     IN                                         IN
[...]
     GW BOUNDARY FLOW =          51265.05       GW BOUNDARY FLOW =             25.11

   INFLOWS - OUTFLOWS =       -1.1012D+07     INFLOWS - OUTFLOWS =         -88288.58
             --------                                   --------

 TOTAL STORAGE CHANGE =       -1.1004D+07         STORAGE CHANGE =         -88297.76
       --------------                             --------------
         LAND SURFACE =         174964.05           LAND SURFACE =         -10872.67
            SOIL ZONE =        1862837.85              SOIL ZONE =         -60134.80
     UNSATURATED ZONE =          39457.46       UNSATURATED ZONE =         -12456.29
       SATURATED ZONE =       -1.3081D+07         SATURATED ZONE =          -4834.00

 OVERALL BUDGET ERROR =          -8156.71           BUDGET ERROR =              9.17


  PERCENT DISCREPANCY =             -0.01    PERCENT DISCREPANCY =              0.01



1
 SUMMARY VOLUMETRIC BUDGET FOR GSFLOW 
 DATE: 09 03 1995              CUMULATIVE TIME STEP:       3
 MODFLOW STRESS PERIOD     61     CURRENT TIME STEP:    1799     ITERATIONS:       7

 -----------------------------------------------------------------------------------

   CUMULATIVE VOLUMES               L**3   RATES FOR THIS TIME STEP           L**3/T
   ------------------                      ------------------------

                                     IN                                         IN
                                     --                                         --
        PRECIPITATION =        1.3351D+08          PRECIPITATION =                  
           STREAMFLOW =                               STREAMFLOW =                  
     GW BOUNDARY FLOW =           5414.46       GW BOUNDARY FLOW =              3.31


                                    OUT                                        OUT
                                    ---                                        ---
   EVAPOTRANSPIRATION =        7.4216D+07     EVAPOTRANSPIRATION =          66709.09
           STREAMFLOW =        7.0844D+07             STREAMFLOW =          11492.30
     GW BOUNDARY FLOW =          51440.55       GW BOUNDARY FLOW =             25.04

   INFLOWS - OUTFLOWS =       -1.1598D+07     INFLOWS - OUTFLOWS =         -78223.12
             --------                                   --------

 TOTAL STORAGE CHANGE =       -1.1590D+07         STORAGE CHANGE =         -78230.08
       --------------                             --------------
         LAND SURFACE =         111496.32           LAND SURFACE =          -7601.38
            SOIL ZONE =        1464356.09              SOIL ZONE =         -52801.26
     UNSATURATED ZONE =         -42504.34       UNSATURATED ZONE =         -11457.86
       SATURATED ZONE =       -1.3123D+07         SATURATED ZONE =          -6369.57

 OVERALL BUDGET ERROR =          -8107.14           BUDGET ERROR =              6.96


  PERCENT DISCREPANCY =             -0.01    PERCENT DISCREPANCY =              0.01



1
 SUMMARY VOLUMETRIC BUDGET FOR GSFLOW 
 DATE: 09 10 1995              CUMULATIVE TIME STEP:      10
 MODFLOW STRESS PERIOD     61     CURRENT TIME STEP:    1806     ITERATIONS:       6

 -----------------------------------------------------------------------------------

   CUMULATIVE VOLUMES               L**3   RATES FOR THIS TIME STEP           L**3/T
   ------------------                      ------------------------

                                     IN                                         IN
                                     --                                         --
        PRECIPITATION =        1.3351D+08          PRECIPITATION =                  
           STREAMFLOW =                               STREAMFLOW =                  
     GW BOUNDARY FLOW =           5438.05       GW BOUNDARY FLOW =              3.42


                                    OUT                                        OUT
                                    ---                                        ---
   EVAPOTRANSPIRATION =        7.4592D+07     EVAPOTRANSPIRATION =          50306.88
           STREAMFLOW =        7.0922D+07             STREAMFLOW =          10942.07
     GW BOUNDARY FLOW =          51615.65       GW BOUNDARY FLOW =             24.99

   INFLOWS - OUTFLOWS =       -1.2052D+07     INFLOWS - OUTFLOWS =         -61270.53
             --------                                   --------

 TOTAL STORAGE CHANGE =       -1.2044D+07         STORAGE CHANGE =         -61281.32
       --------------                             --------------
         LAND SURFACE =          73766.31           LAND SURFACE =          -4565.46
            SOIL ZONE =        1168981.89              SOIL ZONE =         -39150.09
     UNSATURATED ZONE =        -118686.91       UNSATURATED ZONE =         -10673.07
       SATURATED ZONE =       -1.3168D+07         SATURATED ZONE =          -6892.71

 OVERALL BUDGET ERROR =          -8040.68           BUDGET ERROR =             10.79


  PERCENT DISCREPANCY =             -0.01    PERCENT DISCREPANCY =              0.02



1
 SUMMARY VOLUMETRIC BUDGET FOR GSFLOW 
 DATE: 09 17 1995              CUMULATIVE TIME STEP:      17
 MODFLOW STRESS PERIOD     61     CURRENT TIME STEP:    1813     ITERATIONS:       7

 -----------------------------------------------------------------------------------

   CUMULATIVE VOLUMES               L**3   RATES FOR THIS TIME STEP           L**3/T
   ------------------                      ------------------------

                                     IN                                         IN
                                     --                                         --
        PRECIPITATION =        1.3351D+08          PRECIPITATION =                  
           STREAMFLOW =                               STREAMFLOW =                  
     GW BOUNDARY FLOW =           5462.37       GW BOUNDARY FLOW =              3.52


                                    OUT                                        OUT
                                    ---                                        ---
   EVAPOTRANSPIRATION =        7.5000D+07     EVAPOTRANSPIRATION =          46641.15
           STREAMFLOW =        7.0996D+07             STREAMFLOW =          10347.94
     GW BOUNDARY FLOW =          51790.36       GW BOUNDARY FLOW =             24.94

   INFLOWS - OUTFLOWS =       -1.2534D+07     INFLOWS - OUTFLOWS =         -57010.50
             --------                                   --------

 TOTAL STORAGE CHANGE =       -1.2526D+07         STORAGE CHANGE =         -57014.67
       --------------                             --------------
         LAND SURFACE =          42893.82           LAND SURFACE =          -2921.51
            SOIL ZONE =         858480.20              SOIL ZONE =         -34363.49
     UNSATURATED ZONE =        -197683.73       UNSATURATED ZONE =         -11470.75
       SATURATED ZONE =       -1.3230D+07         SATURATED ZONE =          -8258.92

 OVERALL BUDGET ERROR =          -7985.85           BUDGET ERROR =              4.17


  PERCENT DISCREPANCY =             -0.01    PERCENT DISCREPANCY =              0.01



1
 SUMMARY VOLUMETRIC BUDGET FOR GSFLOW 
 DATE: 09 24 1995              CUMULATIVE TIME STEP:      24
 MODFLOW STRESS PERIOD     61     CURRENT TIME STEP:    1820     ITERATIONS:       6

 -----------------------------------------------------------------------------------

   CUMULATIVE VOLUMES               L**3   RATES FOR THIS TIME STEP           L**3/T
   ------------------                      ------------------------

                                     IN                                         IN
                                     --                                         --
        PRECIPITATION =        1.3351D+08          PRECIPITATION =                  
           STREAMFLOW =                               STREAMFLOW =                  
     GW BOUNDARY FLOW =           5487.38       GW BOUNDARY FLOW =              3.61


                                    OUT                                        OUT
                                    ---                                        ---
   EVAPOTRANSPIRATION =        7.5289D+07     EVAPOTRANSPIRATION =          30097.21
           STREAMFLOW =        7.1067D+07             STREAMFLOW =          10157.56
     GW BOUNDARY FLOW =          51964.78       GW BOUNDARY FLOW =             24.91

   INFLOWS - OUTFLOWS =       -1.2894D+07     INFLOWS - OUTFLOWS =         -40276.06
             --------                                   --------

 TOTAL STORAGE CHANGE =       -1.2886D+07         STORAGE CHANGE =         -40282.88
       --------------                             --------------
         LAND SURFACE =          27188.16           LAND SURFACE =          -1533.29
            SOIL ZONE =         651214.88              SOIL ZONE =         -20939.33
     UNSATURATED ZONE =        -275012.02       UNSATURATED ZONE =         -10328.91
       SATURATED ZONE =       -1.3290D+07         SATURATED ZONE =          -7481.36

 OVERALL BUDGET ERROR =          -7957.77           BUDGET ERROR =              6.82


  PERCENT DISCREPANCY =             -0.01    PERCENT DISCREPANCY =              0.02



1
 SUMMARY VOLUMETRIC BUDGET FOR GSFLOW 
 DATE: 10 01 1995              CUMULATIVE TIME STEP:       1
 MODFLOW STRESS PERIOD     62     CURRENT TIME STEP:    1827     ITERATIONS:       6

 -----------------------------------------------------------------------------------

   CUMULATIVE VOLUMES               L**3   RATES FOR THIS TIME STEP           L**3/T
   ------------------                      ------------------------

                                     IN                                         IN
                                     --                                         --
        PRECIPITATION =        1.3351D+08          PRECIPITATION =                  
           STREAMFLOW =                               STREAMFLOW =                  
     GW BOUNDARY FLOW =           5513.04       GW BOUNDARY FLOW =              3.70


                                    OUT                                        OUT
                                    ---                                        ---
   EVAPOTRANSPIRATION =        7.5417D+07     EVAPOTRANSPIRATION =          18485.12
           STREAMFLOW =        7.1139D+07             STREAMFLOW =          10140.89
     GW BOUNDARY FLOW =          52139.05       GW BOUNDARY FLOW =             24.89

   INFLOWS - OUTFLOWS =       -1.3094D+07     INFLOWS - OUTFLOWS =         -28647.19
             --------                                   --------

 TOTAL STORAGE CHANGE =       -1.3086D+07         STORAGE CHANGE =         -28652.35
       --------------                             --------------
         LAND SURFACE =          21549.74           LAND SURFACE =           -680.64
            SOIL ZONE =         564304.32              SOIL ZONE =         -12590.16
     UNSATURATED ZONE =        -338687.03       UNSATURATED ZONE =          -8903.99
       SATURATED ZONE =       -1.3333D+07         SATURATED ZONE =          -6477.57

 OVERALL BUDGET ERROR =          -7922.38           BUDGET ERROR =              5.16


  PERCENT DISCREPANCY =             -0.01    PERCENT DISCREPANCY =              0.02



1
 SUMMARY VOLUMETRIC BUDGET FOR GSFLOW 
 DATE: 10 08 1995              CUMULATIVE TIME STEP:       8
 MODFLOW STRESS PERIOD     62     CURRENT TIME STEP:    1834     ITERATIONS:       5

 -----------------------------------------------------------------------------------

   CUMULATIVE VOLUMES               L**3   RATES FOR THIS TIME STEP           L**3/T
   ------------------                      ------------------------

                                     IN                                         IN
                                     --                                         --
        PRECIPITATION =        1.3351D+08          PRECIPITATION =                  
           STREAMFLOW =                               STREAMFLOW =                  
     GW BOUNDARY FLOW =           5539.29       GW BOUNDARY FLOW =              3.78


                                    OUT                                        OUT
                                    ---                                        ---
   EVAPOTRANSPIRATION =        7.5552D+07     EVAPOTRANSPIRATION =          17057.25
           STREAMFLOW =        7.1209D+07             STREAMFLOW =           9987.09
     GW BOUNDARY FLOW =          52313.17       GW BOUNDARY FLOW =             24.87

   INFLOWS - OUTFLOWS =       -1.3299D+07     INFLOWS - OUTFLOWS =         -27065.42
             --------                                   --------

 TOTAL STORAGE CHANGE =       -1.3291D+07         STORAGE CHANGE =         -27072.30
       --------------                             --------------
         LAND SURFACE =          17598.17           LAND SURFACE =           -617.60
            SOIL ZONE =         471974.97              SOIL ZONE =         -11333.36
     UNSATURATED ZONE =        -398374.99       UNSATURATED ZONE =          -8162.57
       SATURATED ZONE =       -1.3383D+07         SATURATED ZONE =          -6958.76

 OVERALL BUDGET ERROR =          -7889.54           BUDGET ERROR =              6.88


  PERCENT DISCREPANCY =             -0.01    PERCENT DISCREPANCY =              0.03



1
 SUMMARY VOLUMETRIC BUDGET FOR GSFLOW 
 DATE: 10 15 1995              CUMULATIVE TIME STEP:      15
 MODFLOW STRESS PERIOD     62     CURRENT TIME STEP:    1841     ITERATIONS:       5

 -----------------------------------------------------------------------------------

   CUMULATIVE VOLUMES               L**3   RATES FOR THIS TIME STEP           L**3/T
   ------------------                      ------------------------

                                     IN                                         IN
                                     --                                         --
        PRECIPITATION =        1.3351D+08          PRECIPITATION =                  
           STREAMFLOW =                               STREAMFLOW =                  
     GW BOUNDARY FLOW =           5566.09       GW BOUNDARY FLOW =              3.86


                                    OUT                                        OUT
                                    ---                                        ---
   EVAPOTRANSPIRATION =        7.5680D+07     EVAPOTRANSPIRATION =          19799.37
           STREAMFLOW =        7.1277D+07             STREAMFLOW =           9708.39
     GW BOUNDARY FLOW =          52487.14       GW BOUNDARY FLOW =             24.84

   INFLOWS - OUTFLOWS =       -1.3496D+07     INFLOWS - OUTFLOWS =         -29528.74
             --------                                   --------

 TOTAL STORAGE CHANGE =       -1.3488D+07         STORAGE CHANGE =         -29532.31
       --------------                             --------------
         LAND SURFACE =          13563.29           LAND SURFACE =           -673.08
            SOIL ZONE =         387152.44              SOIL ZONE =         -13042.20
     UNSATURATED ZONE =        -452640.99       UNSATURATED ZONE =          -7535.90
       SATURATED ZONE =       -1.3436D+07         SATURATED ZONE =          -8281.14

 OVERALL BUDGET ERROR =          -7867.90           BUDGET ERROR =              3.58


  PERCENT DISCREPANCY =             -0.01    PERCENT DISCREPANCY =              0.01



1
 SUMMARY VOLUMETRIC BUDGET FOR GSFLOW 
 DATE: 10 22 1995              CUMULATIVE TIME STEP:      22
 MODFLOW STRESS PERIOD     62     CURRENT TIME STEP:    1848     ITERATIONS:      15

 -----------------------------------------------------------------------------------

   CUMULATIVE VOLUMES               L**3   RATES FOR THIS TIME STEP           L**3/T
   ------------------                      ------------------------

                                     IN                                         IN
                                     --                                         --
        PRECIPITATION =        1.3351D+08          PRECIPITATION =                  
           STREAMFLOW =                               STREAMFLOW =                  
     GW BOUNDARY FLOW =           5593.42       GW BOUNDARY FLOW =              3.94


                                    OUT                                        OUT
                                    ---                                        ---
   EVAPOTRANSPIRATION =        7.5793D+07     EVAPOTRANSPIRATION =           5152.44
           STREAMFLOW =        7.1345D+07             STREAMFLOW =           9988.78
     GW BOUNDARY FLOW =          52660.49       GW BOUNDARY FLOW =             24.78

   INFLOWS - OUTFLOWS =       -1.3677D+07     INFLOWS - OUTFLOWS =         -15162.05
             --------                                   --------

 TOTAL STORAGE CHANGE =       -1.3669D+07         STORAGE CHANGE =         -15162.28
       --------------                             --------------
         LAND SURFACE =          10116.83           LAND SURFACE =             -7.50
            SOIL ZONE =         314280.66              SOIL ZONE =          -3080.89
     UNSATURATED ZONE =        -502495.87       UNSATURATED ZONE =          -6584.36
       SATURATED ZONE =       -1.3491D+07         SATURATED ZONE =          -5489.52

 OVERALL BUDGET ERROR =          -7854.18           BUDGET ERROR =              0.22


  PERCENT DISCREPANCY =             -0.01    PERCENT DISCREPANCY =              0.00



1
 SUMMARY VOLUMETRIC BUDGET FOR GSFLOW 
 DATE: 10 29 1995              CUMULATIVE TIME STEP:      29
 MODFLOW STRESS PERIOD     62     CURRENT TIME STEP:    1855     ITERATIONS:       6

 -----------------------------------------------------------------------------------

   CUMULATIVE VOLUMES               L**3   RATES FOR THIS TIME STEP           L**3/T
   ------------------                      ------------------------

                                     IN                                         IN
                                     --                                         --
        PRECIPITATION =        1.3351D+08          PRECIPITATION =                  
           STREAMFLOW =                               STREAMFLOW =                  
     GW BOUNDARY FLOW =           5621.35       GW BOUNDARY FLOW =              4.03


                                    OUT                                        OUT
                                    ---                                        ---
   EVAPOTRANSPIRATION =        7.5864D+07     EVAPOTRANSPIRATION =          12314.87
           STREAMFLOW =        7.1414D+07             STREAMFLOW =           9590.70
     GW BOUNDARY FLOW =          52833.70       GW BOUNDARY FLOW =             24.71

   INFLOWS - OUTFLOWS =       -1.3817D+07     INFLOWS - OUTFLOWS =         -21926.25
             --------                                   --------

 TOTAL STORAGE CHANGE =       -1.3809D+07         STORAGE CHANGE =         -21927.86
       --------------                             --------------
         LAND SURFACE =           8965.16           LAND SURFACE =           -342.48
            SOIL ZONE =         270828.19              SOIL ZONE =          -7324.07
     UNSATURATED ZONE =        -549450.96       UNSATURATED ZONE =          -6666.01
       SATURATED ZONE =       -1.3539D+07         SATURATED ZONE =          -7595.30

 OVERALL BUDGET ERROR =          -7848.11           BUDGET ERROR =              1.61


  PERCENT DISCREPANCY =             -0.01    PERCENT DISCREPANCY =              0.01



 Number of time steps:   1857;  Number of non-convergence:   0
 MF iterations:         11482;  SZ iterations:           11460
 Average MF iterations:  6.18;  Average SZ iterations:    6.17
 Maximum MF iterations:    72;  Maximum SZ iterations:      50

mxsziter reached: 1

