1
 SUMMARY VOLUMETRIC BUDGET FOR GSFLOW 
 DATE: 10 07 1990              CUMULATIVE TIME STEP:       7
 MODFLOW STRESS PERIOD      2     CURRENT TIME STEP:       7     ITERATIONS:       7

 -----------------------------------------------------------------------------------

   CUMULATIVE VOLUMES               L**3   RATES FOR THIS TIME STEP           L**3/T
   ------------------                      ------------------------

                                     IN                                         IN
                                     --                                         --
        PRECIPITATION =                            PRECIPITATION =                  
           STREAMFLOW =                               STREAMFLOW =                  
     GW BOUNDARY FLOW =                         GW BOUNDARY FLOW =                  


                                    OUT                                        OUT
                                    ---                                        ---
   EVAPOTRANSPIRATION =         381185.18     EVAPOTRANSPIRATION =          12554.92
           STREAMFLOW =          46395.05             STREAMFLOW =           8180.48
     GW BOUNDARY FLOW =            252.80       GW BOUNDARY FLOW =             36.30

   INFLOWS - OUTFLOWS =        -427833.03     INFLOWS - OUTFLOWS =         -20771.70
             --------                                   --------

 TOTAL STORAGE CHANGE =        -426389.18         STORAGE CHANGE =         -20746.06
       --------------                             --------------
         LAND SURFACE =                             LAND SURFACE =                  
            SOIL ZONE =         -33348.45              SOIL ZONE =          -1007.40
     UNSATURATED ZONE =        -499611.35       UNSATURATED ZONE =         -34032.91
       SATURATED ZONE =         106570.63         SATURATED ZONE =          14294.25

 OVERALL BUDGET ERROR =          -1443.85           BUDGET ERROR =            -25.64


  PERCENT DISCREPANCY =             -0.34    PERCENT DISCREPANCY =             -0.12



1
 SUMMARY VOLUMETRIC BUDGET FOR GSFLOW 
 DATE: 10 14 1990              CUMULATIVE TIME STEP:      14
 MODFLOW STRESS PERIOD      2     CURRENT TIME STEP:      14     ITERATIONS:       6

 -----------------------------------------------------------------------------------

   CUMULATIVE VOLUMES               L**3   RATES FOR THIS TIME STEP           L**3/T
   ------------------                      ------------------------

                                     IN                                         IN
                                     --                                         --
        PRECIPITATION =                            PRECIPITATION =                  
           STREAMFLOW =                               STREAMFLOW =                  
     GW BOUNDARY FLOW =                         GW BOUNDARY FLOW =                  


                                    OUT                                        OUT
                                    ---                                        ---
   EVAPOTRANSPIRATION =         659497.00     EVAPOTRANSPIRATION =          42737.61
           STREAMFLOW =         101695.03             STREAMFLOW =           7486.39
     GW BOUNDARY FLOW =            506.66       GW BOUNDARY FLOW =             36.24

   INFLOWS - OUTFLOWS =        -761698.69     INFLOWS - OUTFLOWS =         -50260.25
             --------                                   --------

 TOTAL STORAGE CHANGE =        -759976.04         STORAGE CHANGE =         -50235.72
       --------------                             --------------
         LAND SURFACE =                             LAND SURFACE =                  
            SOIL ZONE =         -58168.21              SOIL ZONE =          -4433.09
     UNSATURATED ZONE =        -873545.52       UNSATURATED ZONE =         -52592.06
       SATURATED ZONE =         171737.69         SATURATED ZONE =           6789.44

 OVERALL BUDGET ERROR =          -1722.64           BUDGET ERROR =            -24.53


  PERCENT DISCREPANCY =             -0.23    PERCENT DISCREPANCY =             -0.05



1
 SUMMARY VOLUMETRIC BUDGET FOR GSFLOW 
 DATE: 10 21 1990              CUMULATIVE TIME STEP:      21
 MODFLOW STRESS PERIOD      2     CURRENT TIME STEP:      21     ITERATIONS:       6

 -----------------------------------------------------------------------------------

   CUMULATIVE VOLUMES               L**3   RATES FOR THIS TIME STEP           L**3/T
   ------------------                      ------------------------

                                     IN                                         IN
                                     --                                         --
        PRECIPITATION =         188432.87          PRECIPITATION =                  
           STREAMFLOW =                               STREAMFLOW =                  
     GW BOUNDARY FLOW =                         GW BOUNDARY FLOW =                  


                                    OUT                                        OUT
                                    ---                                        ---
   EVAPOTRANSPIRATION =         801422.98     EVAPOTRANSPIRATION =          36676.41
           STREAMFLOW =         165031.59             STREAMFLOW =          10153.68
     GW BOUNDARY FLOW =            760.86       GW BOUNDARY FLOW =             36.37

   INFLOWS - OUTFLOWS =        -778782.55     INFLOWS - OUTFLOWS =         -46866.46
             --------                                   --------

 TOTAL STORAGE CHANGE =        -777806.44         STORAGE CHANGE =         -46722.92
       --------------                             --------------
         LAND SURFACE =          15977.62           LAND SURFACE =         -34861.64
            SOIL ZONE =          56554.40              SOIL ZONE =           -421.47
     UNSATURATED ZONE =       -1085765.24       UNSATURATED ZONE =         -22054.44
       SATURATED ZONE =         235426.78         SATURATED ZONE =          10614.63

 OVERALL BUDGET ERROR =           -976.12           BUDGET ERROR =           -143.54


  PERCENT DISCREPANCY =             -0.10    PERCENT DISCREPANCY =             -0.31



1
 SUMMARY VOLUMETRIC BUDGET FOR GSFLOW 
 DATE: 10 28 1990              CUMULATIVE TIME STEP:      28
 MODFLOW STRESS PERIOD      2     CURRENT TIME STEP:      28     ITERATIONS:       7

 -----------------------------------------------------------------------------------

   CUMULATIVE VOLUMES               L**3   RATES FOR THIS TIME STEP           L**3/T
   ------------------                      ------------------------

                                     IN                                         IN
                                     --                                         --
        PRECIPITATION =         188432.87          PRECIPITATION =                  
           STREAMFLOW =                               STREAMFLOW =                  
     GW BOUNDARY FLOW =                         GW BOUNDARY FLOW =                  


                                    OUT                                        OUT
                                    ---                                        ---
   EVAPOTRANSPIRATION =         926495.71     EVAPOTRANSPIRATION =          11155.40
           STREAMFLOW =         226883.97             STREAMFLOW =           9028.73
     GW BOUNDARY FLOW =           1014.05       GW BOUNDARY FLOW =             36.13

   INFLOWS - OUTFLOWS =        -965960.87     INFLOWS - OUTFLOWS =         -20220.25
             --------                                   --------

 TOTAL STORAGE CHANGE =        -964445.19         STORAGE CHANGE =         -20212.96
       --------------                             --------------
         LAND SURFACE =                             LAND SURFACE =                  
            SOIL ZONE =          28372.74              SOIL ZONE =          -3301.34
     UNSATURATED ZONE =       -1270309.03       UNSATURATED ZONE =         -23153.82
       SATURATED ZONE =         277491.11         SATURATED ZONE =           6242.21

 OVERALL BUDGET ERROR =          -1515.68           BUDGET ERROR =             -7.29


  PERCENT DISCREPANCY =             -0.13    PERCENT DISCREPANCY =             -0.04



1
 SUMMARY VOLUMETRIC BUDGET FOR GSFLOW 
 DATE: 11 04 1990              CUMULATIVE TIME STEP:       4
 MODFLOW STRESS PERIOD      3     CURRENT TIME STEP:      35     ITERATIONS:       6

 -----------------------------------------------------------------------------------

   CUMULATIVE VOLUMES               L**3   RATES FOR THIS TIME STEP           L**3/T
   ------------------                      ------------------------

                                     IN                                         IN
                                     --                                         --
        PRECIPITATION =         703113.06          PRECIPITATION =                  
           STREAMFLOW =                               STREAMFLOW =                  
     GW BOUNDARY FLOW =                         GW BOUNDARY FLOW =                  


                                    OUT                                        OUT
                                    ---                                        ---
   EVAPOTRANSPIRATION =         985661.65     EVAPOTRANSPIRATION =          25594.77
           STREAMFLOW =         297602.00             STREAMFLOW =          10542.87
     GW BOUNDARY FLOW =           1267.10       GW BOUNDARY FLOW =             36.13

   INFLOWS - OUTFLOWS =        -581417.69     INFLOWS - OUTFLOWS =         -36173.77
             --------                                   --------

 TOTAL STORAGE CHANGE =        -583614.46         STORAGE CHANGE =         -37104.63
       --------------                             --------------
         LAND SURFACE =          71009.70           LAND SURFACE =         -84159.07
            SOIL ZONE =         423440.32              SOIL ZONE =          57876.76
     UNSATURATED ZONE =       -1416112.69       UNSATURATED ZONE =         -20119.59
       SATURATED ZONE =         338048.21         SATURATED ZONE =           9297.26

 OVERALL BUDGET ERROR =           2196.77           BUDGET ERROR =            930.86


  PERCENT DISCREPANCY =              0.17    PERCENT DISCREPANCY =              2.54



1
 SUMMARY VOLUMETRIC BUDGET FOR GSFLOW 
 DATE: 11 11 1990              CUMULATIVE TIME STEP:      11
 MODFLOW STRESS PERIOD      3     CURRENT TIME STEP:      42     ITERATIONS:       6

 -----------------------------------------------------------------------------------

   CUMULATIVE VOLUMES               L**3   RATES FOR THIS TIME STEP           L**3/T
   ------------------                      ------------------------

                                     IN                                         IN
                                     --                                         --
        PRECIPITATION =         703113.06          PRECIPITATION =                  
           STREAMFLOW =                               STREAMFLOW =                  
     GW BOUNDARY FLOW =                         GW BOUNDARY FLOW =                  


                                    OUT                                        OUT
                                    ---                                        ---
   EVAPOTRANSPIRATION =        1058732.62     EVAPOTRANSPIRATION =          12486.12
           STREAMFLOW =         368554.56             STREAMFLOW =           9675.81
     GW BOUNDARY FLOW =           1519.20       GW BOUNDARY FLOW =             35.93

   INFLOWS - OUTFLOWS =        -725693.33     INFLOWS - OUTFLOWS =         -22197.86
             --------                                   --------

 TOTAL STORAGE CHANGE =        -727669.19         STORAGE CHANGE =         -22151.72
       --------------                             --------------
         LAND SURFACE =            295.92           LAND SURFACE =           -859.89
            SOIL ZONE =         440770.69              SOIL ZONE =          -6266.46
     UNSATURATED ZONE =       -1556298.23       UNSATURATED ZONE =         -20005.92
       SATURATED ZONE =         387562.44         SATURATED ZONE =           4980.56

 OVERALL BUDGET ERROR =           1975.86           BUDGET ERROR =            -46.14


  PERCENT DISCREPANCY =              0.14    PERCENT DISCREPANCY =             -0.21



1
 SUMMARY VOLUMETRIC BUDGET FOR GSFLOW 
 DATE: 11 18 1990              CUMULATIVE TIME STEP:      18
 MODFLOW STRESS PERIOD      3     CURRENT TIME STEP:      49     ITERATIONS:       6

 -----------------------------------------------------------------------------------

   CUMULATIVE VOLUMES               L**3   RATES FOR THIS TIME STEP           L**3/T
   ------------------                      ------------------------

                                     IN                                         IN
                                     --                                         --
        PRECIPITATION =         747883.35          PRECIPITATION =                  
           STREAMFLOW =                               STREAMFLOW =                  
     GW BOUNDARY FLOW =                         GW BOUNDARY FLOW =                  


                                    OUT                                        OUT
                                    ---                                        ---
   EVAPOTRANSPIRATION =        1127648.70     EVAPOTRANSPIRATION =           5387.08
           STREAMFLOW =         440361.17             STREAMFLOW =          10680.05
     GW BOUNDARY FLOW =           1770.52       GW BOUNDARY FLOW =             35.88

   INFLOWS - OUTFLOWS =        -821897.03     INFLOWS - OUTFLOWS =         -16103.01
             --------                                   --------

 TOTAL STORAGE CHANGE =        -823684.03         STORAGE CHANGE =         -16081.22
       --------------                             --------------
         LAND SURFACE =          10077.61           LAND SURFACE =          -4199.79
            SOIL ZONE =         423912.89              SOIL ZONE =           -540.50
     UNSATURATED ZONE =       -1690083.25       UNSATURATED ZONE =         -18678.82
       SATURATED ZONE =         432408.73         SATURATED ZONE =           7337.89

 OVERALL BUDGET ERROR =           1787.00           BUDGET ERROR =            -21.80


  PERCENT DISCREPANCY =              0.11    PERCENT DISCREPANCY =             -0.14



1
 SUMMARY VOLUMETRIC BUDGET FOR GSFLOW 
 DATE: 11 25 1990              CUMULATIVE TIME STEP:      25
 MODFLOW STRESS PERIOD      3     CURRENT TIME STEP:      56     ITERATIONS:       6

 -----------------------------------------------------------------------------------

   CUMULATIVE VOLUMES               L**3   RATES FOR THIS TIME STEP           L**3/T
   ------------------                      ------------------------

                                     IN                                         IN
                                     --                                         --
        PRECIPITATION =        1009043.38          PRECIPITATION =         186542.88
           STREAMFLOW =                               STREAMFLOW =                  
     GW BOUNDARY FLOW =                         GW BOUNDARY FLOW =                  


                                    OUT                                        OUT
                                    ---                                        ---
   EVAPOTRANSPIRATION =        1187677.45     EVAPOTRANSPIRATION =           3805.11
           STREAMFLOW =         516215.71             STREAMFLOW =          10762.53
     GW BOUNDARY FLOW =           2021.46       GW BOUNDARY FLOW =             35.79

   INFLOWS - OUTFLOWS =        -696871.23     INFLOWS - OUTFLOWS =         171939.45
             --------                                   --------

 TOTAL STORAGE CHANGE =        -700273.96         STORAGE CHANGE =         170381.23
       --------------                             --------------
         LAND SURFACE =          92124.67           LAND SURFACE =          75233.82
            SOIL ZONE =         543857.54              SOIL ZONE =         106805.72
     UNSATURATED ZONE =       -1818109.92       UNSATURATED ZONE =         -17981.39
       SATURATED ZONE =         481853.74         SATURATED ZONE =           6323.07

 OVERALL BUDGET ERROR =           3402.73           BUDGET ERROR =           1558.22


  PERCENT DISCREPANCY =              0.20    PERCENT DISCREPANCY =              0.84



1
 SUMMARY VOLUMETRIC BUDGET FOR GSFLOW 
 DATE: 12 02 1990              CUMULATIVE TIME STEP:       2
 MODFLOW STRESS PERIOD      4     CURRENT TIME STEP:      63     ITERATIONS:       6

 -----------------------------------------------------------------------------------

   CUMULATIVE VOLUMES               L**3   RATES FOR THIS TIME STEP           L**3/T
   ------------------                      ------------------------

                                     IN                                         IN
                                     --                                         --
        PRECIPITATION =        1449284.55          PRECIPITATION =                  
           STREAMFLOW =                               STREAMFLOW =                  
     GW BOUNDARY FLOW =                         GW BOUNDARY FLOW =                  


                                    OUT                                        OUT
                                    ---                                        ---
   EVAPOTRANSPIRATION =        1195273.85     EVAPOTRANSPIRATION =            376.57
           STREAMFLOW =         593288.27             STREAMFLOW =          11054.51
     GW BOUNDARY FLOW =           2271.94       GW BOUNDARY FLOW =             35.77

   INFLOWS - OUTFLOWS =        -341549.50     INFLOWS - OUTFLOWS =         -11466.85
             --------                                   --------

 TOTAL STORAGE CHANGE =        -345735.44         STORAGE CHANGE =         -11475.80
       --------------                             --------------
         LAND SURFACE =         493448.43           LAND SURFACE =           -453.37
            SOIL ZONE =         575321.77              SOIL ZONE =            200.23
     UNSATURATED ZONE =       -1941336.02       UNSATURATED ZONE =         -17308.83
       SATURATED ZONE =         526830.38         SATURATED ZONE =           6086.17

 OVERALL BUDGET ERROR =           4185.94           BUDGET ERROR =              8.96


  PERCENT DISCREPANCY =              0.23    PERCENT DISCREPANCY =              0.08



1
 SUMMARY VOLUMETRIC BUDGET FOR GSFLOW 
 DATE: 12 09 1990              CUMULATIVE TIME STEP:       9
 MODFLOW STRESS PERIOD      4     CURRENT TIME STEP:      70     ITERATIONS:       6

 -----------------------------------------------------------------------------------

   CUMULATIVE VOLUMES               L**3   RATES FOR THIS TIME STEP           L**3/T
   ------------------                      ------------------------

                                     IN                                         IN
                                     --                                         --
        PRECIPITATION =        1449284.55          PRECIPITATION =                  
           STREAMFLOW =                               STREAMFLOW =                  
     GW BOUNDARY FLOW =                         GW BOUNDARY FLOW =                  


                                    OUT                                        OUT
                                    ---                                        ---
   EVAPOTRANSPIRATION =        1272532.52     EVAPOTRANSPIRATION =          13672.09
           STREAMFLOW =         670193.71             STREAMFLOW =          10712.75
     GW BOUNDARY FLOW =           2521.87       GW BOUNDARY FLOW =             35.64

   INFLOWS - OUTFLOWS =        -495963.54     INFLOWS - OUTFLOWS =         -24420.48
             --------                                   --------

 TOTAL STORAGE CHANGE =        -503198.18         STORAGE CHANGE =         -24426.67
       --------------                             --------------
         LAND SURFACE =          66382.66           LAND SURFACE =         -46525.53
            SOIL ZONE =         927019.11              SOIL ZONE =          34840.57
     UNSATURATED ZONE =       -2059510.24       UNSATURATED ZONE =         -16532.63
       SATURATED ZONE =         562910.29         SATURATED ZONE =           3790.91

 OVERALL BUDGET ERROR =           7234.64           BUDGET ERROR =              6.19


  PERCENT DISCREPANCY =              0.37    PERCENT DISCREPANCY =              0.03



1
 SUMMARY VOLUMETRIC BUDGET FOR GSFLOW 
 DATE: 12 16 1990              CUMULATIVE TIME STEP:      16
 MODFLOW STRESS PERIOD      4     CURRENT TIME STEP:      77     ITERATIONS:       6

 -----------------------------------------------------------------------------------

   CUMULATIVE VOLUMES               L**3   RATES FOR THIS TIME STEP           L**3/T
   ------------------                      ------------------------

                                     IN                                         IN
                                     --                                         --
        PRECIPITATION =        1804962.84          PRECIPITATION =                  
           STREAMFLOW =                               STREAMFLOW =                  
     GW BOUNDARY FLOW =                         GW BOUNDARY FLOW =                  


                                    OUT                                        OUT
                                    ---                                        ---
   EVAPOTRANSPIRATION =        1300898.85     EVAPOTRANSPIRATION =                  
           STREAMFLOW =         748716.26             STREAMFLOW =          11412.23
     GW BOUNDARY FLOW =           2771.25       GW BOUNDARY FLOW =             35.61

   INFLOWS - OUTFLOWS =        -247423.52     INFLOWS - OUTFLOWS =         -11447.84
             --------                                   --------

 TOTAL STORAGE CHANGE =        -256440.24         STORAGE CHANGE =         -11461.10
       --------------                             --------------
         LAND SURFACE =         256077.36           LAND SURFACE =                  
            SOIL ZONE =        1067142.37              SOIL ZONE =            136.92
     UNSATURATED ZONE =       -2173200.80       UNSATURATED ZONE =         -15986.77
       SATURATED ZONE =         593540.83         SATURATED ZONE =           4388.75

 OVERALL BUDGET ERROR =           9016.72           BUDGET ERROR =             13.26


  PERCENT DISCREPANCY =              0.44    PERCENT DISCREPANCY =              0.12



1
 SUMMARY VOLUMETRIC BUDGET FOR GSFLOW 
 DATE: 12 23 1990              CUMULATIVE TIME STEP:      23
 MODFLOW STRESS PERIOD      4     CURRENT TIME STEP:      84     ITERATIONS:       6

 -----------------------------------------------------------------------------------

   CUMULATIVE VOLUMES               L**3   RATES FOR THIS TIME STEP           L**3/T
   ------------------                      ------------------------

                                     IN                                         IN
                                     --                                         --
        PRECIPITATION =        2276236.55          PRECIPITATION =                  
           STREAMFLOW =                               STREAMFLOW =                  
     GW BOUNDARY FLOW =              0.08       GW BOUNDARY FLOW =              0.04


                                    OUT                                        OUT
                                    ---                                        ---
   EVAPOTRANSPIRATION =        1302279.61     EVAPOTRANSPIRATION =                  
           STREAMFLOW =         829022.94             STREAMFLOW =          11511.68
     GW BOUNDARY FLOW =           3020.27       GW BOUNDARY FLOW =             35.57

   INFLOWS - OUTFLOWS =         141913.81     INFLOWS - OUTFLOWS =         -11547.20
             --------                                   --------

 TOTAL STORAGE CHANGE =         132815.83         STORAGE CHANGE =         -11558.96
       --------------                             --------------
         LAND SURFACE =         725980.66           LAND SURFACE =                  
            SOIL ZONE =        1068149.63              SOIL ZONE =            148.07
     UNSATURATED ZONE =       -2282648.06       UNSATURATED ZONE =         -15387.69
       SATURATED ZONE =         621333.60         SATURATED ZONE =           3680.66

 OVERALL BUDGET ERROR =           9097.98           BUDGET ERROR =             11.76


  PERCENT DISCREPANCY =              0.40    PERCENT DISCREPANCY =              0.10



1
 SUMMARY VOLUMETRIC BUDGET FOR GSFLOW 
 DATE: 12 30 1990              CUMULATIVE TIME STEP:      30
 MODFLOW STRESS PERIOD      4     CURRENT TIME STEP:      91     ITERATIONS:       5

 -----------------------------------------------------------------------------------

   CUMULATIVE VOLUMES               L**3   RATES FOR THIS TIME STEP           L**3/T
   ------------------                      ------------------------

                                     IN                                         IN
                                     --                                         --
        PRECIPITATION =        2276236.55          PRECIPITATION =                  
           STREAMFLOW =                               STREAMFLOW =                  
     GW BOUNDARY FLOW =              0.77       GW BOUNDARY FLOW =              0.14


                                    OUT                                        OUT
                                    ---                                        ---
   EVAPOTRANSPIRATION =        1303036.11     EVAPOTRANSPIRATION =                  
           STREAMFLOW =         909977.62             STREAMFLOW =          11604.36
     GW BOUNDARY FLOW =           3269.37       GW BOUNDARY FLOW =             35.60

   INFLOWS - OUTFLOWS =          59954.23     INFLOWS - OUTFLOWS =         -11639.81
             --------                                   --------

 TOTAL STORAGE CHANGE =          50790.18         STORAGE CHANGE =         -11648.48
       --------------                             --------------
         LAND SURFACE =         725228.17           LAND SURFACE =                  
            SOIL ZONE =        1069229.92              SOIL ZONE =            159.42
     UNSATURATED ZONE =       -2388208.15       UNSATURATED ZONE =         -14848.72
       SATURATED ZONE =         644540.23         SATURATED ZONE =           3040.82

 OVERALL BUDGET ERROR =           9164.06           BUDGET ERROR =              8.66


  PERCENT DISCREPANCY =              0.40    PERCENT DISCREPANCY =              0.07



1
 SUMMARY VOLUMETRIC BUDGET FOR GSFLOW 
 DATE: 01 06 1991              CUMULATIVE TIME STEP:       6
 MODFLOW STRESS PERIOD      5     CURRENT TIME STEP:      98     ITERATIONS:       5

 -----------------------------------------------------------------------------------

   CUMULATIVE VOLUMES               L**3   RATES FOR THIS TIME STEP           L**3/T
   ------------------                      ------------------------

                                     IN                                         IN
                                     --                                         --
        PRECIPITATION =        2276236.55          PRECIPITATION =                  
           STREAMFLOW =                               STREAMFLOW =                  
     GW BOUNDARY FLOW =              2.10       GW BOUNDARY FLOW =              0.22


                                    OUT                                        OUT
                                    ---                                        ---
   EVAPOTRANSPIRATION =        1326408.22     EVAPOTRANSPIRATION =           2594.33
           STREAMFLOW =         991547.04             STREAMFLOW =          11685.03
     GW BOUNDARY FLOW =           3519.22       GW BOUNDARY FLOW =             35.75

   INFLOWS - OUTFLOWS =         -45235.84     INFLOWS - OUTFLOWS =         -14314.89
             --------                                   --------

 TOTAL STORAGE CHANGE =         -55932.34         STORAGE CHANGE =         -14401.99
       --------------                             --------------
         LAND SURFACE =         620283.30           LAND SURFACE =          -6112.33
            SOIL ZONE =        1150511.20              SOIL ZONE =           3609.35
     UNSATURATED ZONE =       -2489832.46       UNSATURATED ZONE =         -14279.78
       SATURATED ZONE =         663105.62         SATURATED ZONE =           2380.77

 OVERALL BUDGET ERROR =          10696.51           BUDGET ERROR =             87.10


  PERCENT DISCREPANCY =              0.46    PERCENT DISCREPANCY =              0.61



1
 SUMMARY VOLUMETRIC BUDGET FOR GSFLOW 
 DATE: 01 13 1991              CUMULATIVE TIME STEP:      13
 MODFLOW STRESS PERIOD      5     CURRENT TIME STEP:     105     ITERATIONS:       6

 -----------------------------------------------------------------------------------

   CUMULATIVE VOLUMES               L**3   RATES FOR THIS TIME STEP           L**3/T
   ------------------                      ------------------------

                                     IN                                         IN
                                     --                                         --
        PRECIPITATION =        2596386.94          PRECIPITATION =          10327.43
           STREAMFLOW =                               STREAMFLOW =                  
     GW BOUNDARY FLOW =              4.02       GW BOUNDARY FLOW =              0.31


                                    OUT                                        OUT
                                    ---                                        ---
   EVAPOTRANSPIRATION =        1386343.62     EVAPOTRANSPIRATION =          16617.92
           STREAMFLOW =        1073258.77             STREAMFLOW =          11533.57
     GW BOUNDARY FLOW =           3769.43       GW BOUNDARY FLOW =             35.72

   INFLOWS - OUTFLOWS =         133019.13     INFLOWS - OUTFLOWS =         -17859.46
             --------                                   --------

 TOTAL STORAGE CHANGE =         119149.34         STORAGE CHANGE =         -18689.74
       --------------                             --------------
         LAND SURFACE =         586364.86           LAND SURFACE =        -135127.18
            SOIL ZONE =        1444231.17              SOIL ZONE =         129215.08
     UNSATURATED ZONE =       -2587412.50       UNSATURATED ZONE =         -13746.07
       SATURATED ZONE =         675965.81         SATURATED ZONE =            968.42

 OVERALL BUDGET ERROR =          13869.79           BUDGET ERROR =            830.27


  PERCENT DISCREPANCY =              0.54    PERCENT DISCREPANCY =              2.90



1
 SUMMARY VOLUMETRIC BUDGET FOR GSFLOW 
 DATE: 01 20 1991              CUMULATIVE TIME STEP:      20
 MODFLOW STRESS PERIOD      5     CURRENT TIME STEP:     112     ITERATIONS:       5

 -----------------------------------------------------------------------------------

   CUMULATIVE VOLUMES               L**3   RATES FOR THIS TIME STEP           L**3/T
   ------------------                      ------------------------

                                     IN                                         IN
                                     --                                         --
        PRECIPITATION =        2596386.94          PRECIPITATION =                  
           STREAMFLOW =                               STREAMFLOW =                  
     GW BOUNDARY FLOW =              6.55       GW BOUNDARY FLOW =              0.40


                                    OUT                                        OUT
                                    ---                                        ---
   EVAPOTRANSPIRATION =        1454869.65     EVAPOTRANSPIRATION =           1819.74
           STREAMFLOW =        1155456.50             STREAMFLOW =          11790.05
     GW BOUNDARY FLOW =           4019.65       GW BOUNDARY FLOW =             35.75

   INFLOWS - OUTFLOWS =         -17952.31     INFLOWS - OUTFLOWS =         -13645.14
             --------                                   --------

 TOTAL STORAGE CHANGE =         -31030.26         STORAGE CHANGE =         -13643.66
       --------------                             --------------
         LAND SURFACE =         422210.59           LAND SURFACE =           -295.67
            SOIL ZONE =        1543077.00              SOIL ZONE =          -1301.95
     UNSATURATED ZONE =       -2681078.08       UNSATURATED ZONE =         -13155.69
       SATURATED ZONE =         684760.23         SATURATED ZONE =           1109.65

 OVERALL BUDGET ERROR =          13077.95           BUDGET ERROR =             -1.47


  PERCENT DISCREPANCY =              0.50    PERCENT DISCREPANCY =             -0.01



1
 SUMMARY VOLUMETRIC BUDGET FOR GSFLOW 
 DATE: 01 27 1991              CUMULATIVE TIME STEP:      27
 MODFLOW STRESS PERIOD      5     CURRENT TIME STEP:     119     ITERATIONS:       5

 -----------------------------------------------------------------------------------

   CUMULATIVE VOLUMES               L**3   RATES FOR THIS TIME STEP           L**3/T
   ------------------                      ------------------------

                                     IN                                         IN
                                     --                                         --
        PRECIPITATION =        2596386.94          PRECIPITATION =                  
           STREAMFLOW =                               STREAMFLOW =                  
     GW BOUNDARY FLOW =              9.66       GW BOUNDARY FLOW =              0.48


                                    OUT                                        OUT
                                    ---                                        ---
   EVAPOTRANSPIRATION =        1475864.69     EVAPOTRANSPIRATION =           1213.54
           STREAMFLOW =        1238163.80             STREAMFLOW =          11851.31
     GW BOUNDARY FLOW =           4269.84       GW BOUNDARY FLOW =             35.74

   INFLOWS - OUTFLOWS =        -121901.73     INFLOWS - OUTFLOWS =         -13100.11
             --------                                   --------

 TOTAL STORAGE CHANGE =        -134516.26         STORAGE CHANGE =         -13102.73
       --------------                             --------------
         LAND SURFACE =         394226.40           LAND SURFACE =           -109.80
            SOIL ZONE =        1552441.37              SOIL ZONE =           -914.66
     UNSATURATED ZONE =       -2771207.13       UNSATURATED ZONE =         -12656.08
       SATURATED ZONE =         690023.10         SATURATED ZONE =            577.82

 OVERALL BUDGET ERROR =          12614.53           BUDGET ERROR =              2.63


  PERCENT DISCREPANCY =              0.46    PERCENT DISCREPANCY =              0.02



1
 SUMMARY VOLUMETRIC BUDGET FOR GSFLOW 
 DATE: 02 03 1991              CUMULATIVE TIME STEP:       3
 MODFLOW STRESS PERIOD      6     CURRENT TIME STEP:     126     ITERATIONS:       6

 -----------------------------------------------------------------------------------

   CUMULATIVE VOLUMES               L**3   RATES FOR THIS TIME STEP           L**3/T
   ------------------                      ------------------------

                                     IN                                         IN
                                     --                                         --
        PRECIPITATION =        3228422.31          PRECIPITATION =          30459.53
           STREAMFLOW =                               STREAMFLOW =                  
     GW BOUNDARY FLOW =             13.31       GW BOUNDARY FLOW =              0.55


                                    OUT                                        OUT
                                    ---                                        ---
   EVAPOTRANSPIRATION =        1574126.65     EVAPOTRANSPIRATION =          19966.52
           STREAMFLOW =        1321092.25             STREAMFLOW =          11879.21
     GW BOUNDARY FLOW =           4519.96       GW BOUNDARY FLOW =             35.73

   INFLOWS - OUTFLOWS =         328696.76     INFLOWS - OUTFLOWS =          -1421.37
             --------                                   --------

 TOTAL STORAGE CHANGE =         311489.52         STORAGE CHANGE =          -1665.73
       --------------                             --------------
         LAND SURFACE =         184727.70           LAND SURFACE =         -28670.24
            SOIL ZONE =        2295159.35              SOIL ZONE =          39460.68
     UNSATURATED ZONE =       -2858219.80       UNSATURATED ZONE =         -12242.16
       SATURATED ZONE =         689822.26         SATURATED ZONE =           -214.01

 OVERALL BUDGET ERROR =          17207.25           BUDGET ERROR =            244.36


  PERCENT DISCREPANCY =              0.53    PERCENT DISCREPANCY =              0.76



1
 SUMMARY VOLUMETRIC BUDGET FOR GSFLOW 
 DATE: 02 10 1991              CUMULATIVE TIME STEP:      10
 MODFLOW STRESS PERIOD      6     CURRENT TIME STEP:     133     ITERATIONS:      10

 -----------------------------------------------------------------------------------

   CUMULATIVE VOLUMES               L**3   RATES FOR THIS TIME STEP           L**3/T
   ------------------                      ------------------------

                                     IN                                         IN
                                     --                                         --
        PRECIPITATION =        3510173.01          PRECIPITATION =                  
           STREAMFLOW =                               STREAMFLOW =                  
     GW BOUNDARY FLOW =             17.49       GW BOUNDARY FLOW =              0.63


                                    OUT                                        OUT
                                    ---                                        ---
   EVAPOTRANSPIRATION =        1740013.81     EVAPOTRANSPIRATION =          25317.65
           STREAMFLOW =        1403847.87             STREAMFLOW =          11231.30
     GW BOUNDARY FLOW =           4769.95       GW BOUNDARY FLOW =             35.70

   INFLOWS - OUTFLOWS =         361558.87     INFLOWS - OUTFLOWS =         -36584.02
             --------                                   --------

 TOTAL STORAGE CHANGE =         343220.63         STORAGE CHANGE =         -36550.99
       --------------                             --------------
         LAND SURFACE =          90050.80           LAND SURFACE =         -12330.62
            SOIL ZONE =        2506941.69              SOIL ZONE =         -12500.17
     UNSATURATED ZONE =       -2941610.44       UNSATURATED ZONE =         -11789.83
       SATURATED ZONE =         687838.58         SATURATED ZONE =             69.63

 OVERALL BUDGET ERROR =          18338.25           BUDGET ERROR =            -33.03


  PERCENT DISCREPANCY =              0.52    PERCENT DISCREPANCY =             -0.09



1
 SUMMARY VOLUMETRIC BUDGET FOR GSFLOW 
 DATE: 02 17 1991              CUMULATIVE TIME STEP:      17
 MODFLOW STRESS PERIOD      6     CURRENT TIME STEP:     140     ITERATIONS:       5

 -----------------------------------------------------------------------------------

   CUMULATIVE VOLUMES               L**3   RATES FOR THIS TIME STEP           L**3/T
   ------------------                      ------------------------

                                     IN                                         IN
                                     --                                         --
        PRECIPITATION =        3510173.01          PRECIPITATION =                  
           STREAMFLOW =                               STREAMFLOW =                  
     GW BOUNDARY FLOW =             22.17       GW BOUNDARY FLOW =              0.70


                                    OUT                                        OUT
                                    ---                                        ---
   EVAPOTRANSPIRATION =        1979981.12     EVAPOTRANSPIRATION =          23054.26
           STREAMFLOW =        1486754.52             STREAMFLOW =          11926.16
     GW BOUNDARY FLOW =           5019.84       GW BOUNDARY FLOW =             35.67

   INFLOWS - OUTFLOWS =          38439.71     INFLOWS - OUTFLOWS =         -35015.40
             --------                                   --------

 TOTAL STORAGE CHANGE =          20449.34         STORAGE CHANGE =         -34986.54
       --------------                             --------------
         LAND SURFACE =          18163.74           LAND SURFACE =          -1654.25
            SOIL ZONE =        2341648.51              SOIL ZONE =         -21239.36
     UNSATURATED ZONE =       -3021601.64       UNSATURATED ZONE =         -11079.88
       SATURATED ZONE =         682238.73         SATURATED ZONE =          -1013.05

 OVERALL BUDGET ERROR =          17990.37           BUDGET ERROR =            -28.85


  PERCENT DISCREPANCY =              0.51    PERCENT DISCREPANCY =             -0.08



1
 SUMMARY VOLUMETRIC BUDGET FOR GSFLOW 
 DATE: 02 24 1991              CUMULATIVE TIME STEP:      24
 MODFLOW STRESS PERIOD      6     CURRENT TIME STEP:     147     ITERATIONS:       8

 -----------------------------------------------------------------------------------

   CUMULATIVE VOLUMES               L**3   RATES FOR THIS TIME STEP           L**3/T
   ------------------                      ------------------------

                                     IN                                         IN
                                     --                                         --
        PRECIPITATION =        3510173.01          PRECIPITATION =                  
           STREAMFLOW =                               STREAMFLOW =                  
     GW BOUNDARY FLOW =             27.31       GW BOUNDARY FLOW =              0.76


                                    OUT                                        OUT
                                    ---                                        ---
   EVAPOTRANSPIRATION =        2194910.80     EVAPOTRANSPIRATION =          21884.82
           STREAMFLOW =        1569428.15             STREAMFLOW =          11665.53
     GW BOUNDARY FLOW =           5268.85       GW BOUNDARY FLOW =             35.50

   INFLOWS - OUTFLOWS =        -259407.47     INFLOWS - OUTFLOWS =         -33585.08
             --------                                   --------

 TOTAL STORAGE CHANGE =        -277136.13         STORAGE CHANGE =         -33567.86
       --------------                             --------------
         LAND SURFACE =           6686.42           LAND SURFACE =           -239.07
            SOIL ZONE =        2139706.87              SOIL ZONE =         -21423.71
     UNSATURATED ZONE =       -3097513.75       UNSATURATED ZONE =         -10665.45
       SATURATED ZONE =         673984.33         SATURATED ZONE =          -1239.63

 OVERALL BUDGET ERROR =          17728.66           BUDGET ERROR =            -17.23


  PERCENT DISCREPANCY =              0.47    PERCENT DISCREPANCY =             -0.05



1
 SUMMARY VOLUMETRIC BUDGET FOR GSFLOW 
 DATE: 03 03 1991              CUMULATIVE TIME STEP:       3
 MODFLOW STRESS PERIOD      7     CURRENT TIME STEP:     154     ITERATIONS:       5

 -----------------------------------------------------------------------------------

   CUMULATIVE VOLUMES               L**3   RATES FOR THIS TIME STEP           L**3/T
   ------------------                      ------------------------

                                     IN                                         IN
                                     --                                         --
        PRECIPITATION =        6220189.63          PRECIPITATION =        1243187.24
           STREAMFLOW =                               STREAMFLOW =                  
     GW BOUNDARY FLOW =             32.92       GW BOUNDARY FLOW =              0.83


                                    OUT                                        OUT
                                    ---                                        ---
   EVAPOTRANSPIRATION =        2347009.31     EVAPOTRANSPIRATION =           7987.58
           STREAMFLOW =        1652430.04             STREAMFLOW =          11830.87
     GW BOUNDARY FLOW =           5516.68       GW BOUNDARY FLOW =             35.32

   INFLOWS - OUTFLOWS =        2215266.52     INFLOWS - OUTFLOWS =        1223334.30
             --------                                   --------

 TOTAL STORAGE CHANGE =        2193840.25         STORAGE CHANGE =        1219463.07
       --------------                             --------------
         LAND SURFACE =        2505892.53           LAND SURFACE =        1046737.06
            SOIL ZONE =        2197897.37              SOIL ZONE =         185321.72
     UNSATURATED ZONE =       -3170587.69       UNSATURATED ZONE =         -10271.82
       SATURATED ZONE =         660638.04         SATURATED ZONE =          -2323.89

 OVERALL BUDGET ERROR =          21426.27           BUDGET ERROR =           3871.22


  PERCENT DISCREPANCY =              0.35    PERCENT DISCREPANCY =              0.31



1
 SUMMARY VOLUMETRIC BUDGET FOR GSFLOW 
 DATE: 03 10 1991              CUMULATIVE TIME STEP:      10
 MODFLOW STRESS PERIOD      7     CURRENT TIME STEP:     161     ITERATIONS:       5

 -----------------------------------------------------------------------------------

   CUMULATIVE VOLUMES               L**3   RATES FOR THIS TIME STEP           L**3/T
   ------------------                      ------------------------

                                     IN                                         IN
                                     --                                         --
        PRECIPITATION =        8746030.42          PRECIPITATION =          32888.55
           STREAMFLOW =                               STREAMFLOW =                  
     GW BOUNDARY FLOW =             38.96       GW BOUNDARY FLOW =              0.89


                                    OUT                                        OUT
                                    ---                                        ---
   EVAPOTRANSPIRATION =        2399790.00     EVAPOTRANSPIRATION =           6895.60
           STREAMFLOW =        1744560.87             STREAMFLOW =          12432.01
     GW BOUNDARY FLOW =           5763.76       GW BOUNDARY FLOW =             35.23

   INFLOWS - OUTFLOWS =        4595954.75     INFLOWS - OUTFLOWS =          13526.61
             --------                                   --------

 TOTAL STORAGE CHANGE =        4554238.69         STORAGE CHANGE =          14133.88
       --------------                             --------------
         LAND SURFACE =        3056677.02           LAND SURFACE =          -5526.40
            SOIL ZONE =        4061696.63              SOIL ZONE =          26823.76
     UNSATURATED ZONE =       -3210005.54       UNSATURATED ZONE =          -4787.09
       SATURATED ZONE =         645870.57         SATURATED ZONE =          -2376.39

 OVERALL BUDGET ERROR =          41716.06           BUDGET ERROR =           -607.27


  PERCENT DISCREPANCY =              0.48    PERCENT DISCREPANCY =             -1.83



1
 SUMMARY VOLUMETRIC BUDGET FOR GSFLOW 
 DATE: 03 17 1991              CUMULATIVE TIME STEP:      17
 MODFLOW STRESS PERIOD      7     CURRENT TIME STEP:     168     ITERATIONS:       5

 -----------------------------------------------------------------------------------

   CUMULATIVE VOLUMES               L**3   RATES FOR THIS TIME STEP           L**3/T
   ------------------                      ------------------------

                                     IN                                         IN
                                     --                                         --
        PRECIPITATION =        9897129.71          PRECIPITATION =         157865.04
           STREAMFLOW =                               STREAMFLOW =                  
     GW BOUNDARY FLOW =             45.42       GW BOUNDARY FLOW =              0.95


                                    OUT                                        OUT
                                    ---                                        ---
   EVAPOTRANSPIRATION =        2421195.45     EVAPOTRANSPIRATION =           6377.72
           STREAMFLOW =        1832831.11             STREAMFLOW =          12690.69
     GW BOUNDARY FLOW =           6009.92       GW BOUNDARY FLOW =             35.11

   INFLOWS - OUTFLOWS =        5637138.66     INFLOWS - OUTFLOWS =         138762.47
             --------                                   --------

 TOTAL STORAGE CHANGE =        5592341.23         STORAGE CHANGE =         138329.63
       --------------                             --------------
         LAND SURFACE =        4188230.79           LAND SURFACE =         152136.56
            SOIL ZONE =        4018782.41              SOIL ZONE =          -6020.94
     UNSATURATED ZONE =       -3243795.82       UNSATURATED ZONE =          -5064.58
       SATURATED ZONE =         629123.85         SATURATED ZONE =          -2721.41

 OVERALL BUDGET ERROR =          44797.43           BUDGET ERROR =            432.84


  PERCENT DISCREPANCY =              0.45    PERCENT DISCREPANCY =              0.27



1
 SUMMARY VOLUMETRIC BUDGET FOR GSFLOW 
 DATE: 03 24 1991              CUMULATIVE TIME STEP:      24
 MODFLOW STRESS PERIOD      7     CURRENT TIME STEP:     175     ITERATIONS:       5

 -----------------------------------------------------------------------------------

   CUMULATIVE VOLUMES               L**3   RATES FOR THIS TIME STEP           L**3/T
   ------------------                      ------------------------

                                     IN                                         IN
                                     --                                         --
        PRECIPITATION =        1.1673D+07          PRECIPITATION =        1230031.83
           STREAMFLOW =                               STREAMFLOW =                  
     GW BOUNDARY FLOW =             52.30       GW BOUNDARY FLOW =              1.01


                                    OUT                                        OUT
                                    ---                                        ---
   EVAPOTRANSPIRATION =        2452085.15     EVAPOTRANSPIRATION =           3629.56
           STREAMFLOW =        1924483.14             STREAMFLOW =          13328.19
     GW BOUNDARY FLOW =           6255.33       GW BOUNDARY FLOW =             35.02

   INFLOWS - OUTFLOWS =        7290340.18     INFLOWS - OUTFLOWS =        1213040.08
             --------                                   --------

 TOTAL STORAGE CHANGE =        7242361.18         STORAGE CHANGE =        1212655.35
       --------------                             --------------
         LAND SURFACE =        5933783.02           LAND SURFACE =        1227482.51
            SOIL ZONE =        3978164.07              SOIL ZONE =          -6821.47
     UNSATURATED ZONE =       -3279251.97       UNSATURATED ZONE =          -5128.60
       SATURATED ZONE =         609666.06         SATURATED ZONE =          -2877.09

 OVERALL BUDGET ERROR =          47979.01           BUDGET ERROR =            384.72


  PERCENT DISCREPANCY =              0.41    PERCENT DISCREPANCY =              0.03



1
 SUMMARY VOLUMETRIC BUDGET FOR GSFLOW 
 DATE: 03 31 1991              CUMULATIVE TIME STEP:      31
 MODFLOW STRESS PERIOD      7     CURRENT TIME STEP:     182     ITERATIONS:       6

 -----------------------------------------------------------------------------------

   CUMULATIVE VOLUMES               L**3   RATES FOR THIS TIME STEP           L**3/T
   ------------------                      ------------------------

                                     IN                                         IN
                                     --                                         --
        PRECIPITATION =        1.2495D+07          PRECIPITATION =                  
           STREAMFLOW =                               STREAMFLOW =                  
     GW BOUNDARY FLOW =             59.56       GW BOUNDARY FLOW =              1.06


                                    OUT                                        OUT
                                    ---                                        ---
   EVAPOTRANSPIRATION =        2559045.08     EVAPOTRANSPIRATION =          43858.54
           STREAMFLOW =        2018958.45             STREAMFLOW =          13848.45
     GW BOUNDARY FLOW =           6499.99       GW BOUNDARY FLOW =             34.91

   INFLOWS - OUTFLOWS =        7910881.32     INFLOWS - OUTFLOWS =         -57740.84
             --------                                   --------

 TOTAL STORAGE CHANGE =        7859004.08         STORAGE CHANGE =         -58239.82
       --------------                             --------------
         LAND SURFACE =        6553217.20           LAND SURFACE =        -112248.23
            SOIL ZONE =        4031090.80              SOIL ZONE =          61710.24
     UNSATURATED ZONE =       -3313798.66       UNSATURATED ZONE =          -4375.01
       SATURATED ZONE =         588494.73         SATURATED ZONE =          -3326.82

 OVERALL BUDGET ERROR =          51877.25           BUDGET ERROR =            498.98


  PERCENT DISCREPANCY =              0.42    PERCENT DISCREPANCY =              0.86



1
 SUMMARY VOLUMETRIC BUDGET FOR GSFLOW 
 DATE: 04 07 1991              CUMULATIVE TIME STEP:       7
 MODFLOW STRESS PERIOD      8     CURRENT TIME STEP:     189     ITERATIONS:       6

 -----------------------------------------------------------------------------------

   CUMULATIVE VOLUMES               L**3   RATES FOR THIS TIME STEP           L**3/T
   ------------------                      ------------------------

                                     IN                                         IN
                                     --                                         --
        PRECIPITATION =        1.3018D+07          PRECIPITATION =                  
           STREAMFLOW =                               STREAMFLOW =                  
     GW BOUNDARY FLOW =             67.20       GW BOUNDARY FLOW =              1.11


                                    OUT                                        OUT
                                    ---                                        ---
   EVAPOTRANSPIRATION =        2842633.21     EVAPOTRANSPIRATION =          13610.66
           STREAMFLOW =        2169307.12             STREAMFLOW =          25391.61
     GW BOUNDARY FLOW =           6744.93       GW BOUNDARY FLOW =             35.03

   INFLOWS - OUTFLOWS =        7999118.69     INFLOWS - OUTFLOWS =         -39036.19
             --------                                   --------

 TOTAL STORAGE CHANGE =        7926219.14         STORAGE CHANGE =         -40527.70
       --------------                             --------------
         LAND SURFACE =        5033740.14           LAND SURFACE =         -59134.98
            SOIL ZONE =        5628399.89              SOIL ZONE =          13283.66
     UNSATURATED ZONE =       -3303636.44       UNSATURATED ZONE =           7847.68
       SATURATED ZONE =         567715.54         SATURATED ZONE =          -2524.05

 OVERALL BUDGET ERROR =          72899.55           BUDGET ERROR =           1491.51

  ***WARNING, FLUX RATES OFF > 3%

  PERCENT DISCREPANCY =              0.56    PERCENT DISCREPANCY =              3.75



1
 SUMMARY VOLUMETRIC BUDGET FOR GSFLOW 
 DATE: 04 14 1991              CUMULATIVE TIME STEP:      14
 MODFLOW STRESS PERIOD      8     CURRENT TIME STEP:     196     ITERATIONS:       7

 -----------------------------------------------------------------------------------

   CUMULATIVE VOLUMES               L**3   RATES FOR THIS TIME STEP           L**3/T
   ------------------                      ------------------------

                                     IN                                         IN
                                     --                                         --
        PRECIPITATION =        1.3018D+07          PRECIPITATION =                  
           STREAMFLOW =                               STREAMFLOW =                  
     GW BOUNDARY FLOW =             75.18       GW BOUNDARY FLOW =              1.16


                                    OUT                                        OUT
                                    ---                                        ---
   EVAPOTRANSPIRATION =        3012799.71     EVAPOTRANSPIRATION =          38939.41
           STREAMFLOW =        2457569.71             STREAMFLOW =          58828.03
     GW BOUNDARY FLOW =           6991.39       GW BOUNDARY FLOW =             35.41

   INFLOWS - OUTFLOWS =        7540451.11     INFLOWS - OUTFLOWS =         -97801.69
             --------                                   --------

 TOTAL STORAGE CHANGE =        7447956.13         STORAGE CHANGE =         -97986.39
       --------------                             --------------
         LAND SURFACE =        4429762.57           LAND SURFACE =        -170838.53
            SOIL ZONE =        5712576.09              SOIL ZONE =          66862.46
     UNSATURATED ZONE =       -3247205.46       UNSATURATED ZONE =           7780.29
       SATURATED ZONE =         552822.93         SATURATED ZONE =          -1790.62

 OVERALL BUDGET ERROR =          92494.97           BUDGET ERROR =            184.70


  PERCENT DISCREPANCY =              0.71    PERCENT DISCREPANCY =              0.19



1
 SUMMARY VOLUMETRIC BUDGET FOR GSFLOW 
 DATE: 04 21 1991              CUMULATIVE TIME STEP:      21
 MODFLOW STRESS PERIOD      8     CURRENT TIME STEP:     203     ITERATIONS:      10

 -----------------------------------------------------------------------------------

   CUMULATIVE VOLUMES               L**3   RATES FOR THIS TIME STEP           L**3/T
   ------------------                      ------------------------

                                     IN                                         IN
                                     --                                         --
        PRECIPITATION =        1.3034D+07          PRECIPITATION =                  
           STREAMFLOW =                               STREAMFLOW =                  
     GW BOUNDARY FLOW =             83.48       GW BOUNDARY FLOW =              1.20


                                    OUT                                        OUT
                                    ---                                        ---
   EVAPOTRANSPIRATION =        3244673.64     EVAPOTRANSPIRATION =          43524.31
           STREAMFLOW =        2931214.13             STREAMFLOW =          78787.30
     GW BOUNDARY FLOW =           7239.54       GW BOUNDARY FLOW =             35.54

   INFLOWS - OUTFLOWS =        6851018.26     INFLOWS - OUTFLOWS =        -122345.95
             --------                                   --------

 TOTAL STORAGE CHANGE =        6768322.31         STORAGE CHANGE =        -121455.39
       --------------                             --------------
         LAND SURFACE =        3339485.95           LAND SURFACE =        -212222.76
            SOIL ZONE =        6073997.28              SOIL ZONE =          81845.13
     UNSATURATED ZONE =       -3187538.39       UNSATURATED ZONE =          10231.59
       SATURATED ZONE =         542377.47         SATURATED ZONE =          -1309.34

 OVERALL BUDGET ERROR =          82695.95           BUDGET ERROR =           -890.56


  PERCENT DISCREPANCY =              0.64    PERCENT DISCREPANCY =             -0.73



1
 SUMMARY VOLUMETRIC BUDGET FOR GSFLOW 
 DATE: 04 28 1991              CUMULATIVE TIME STEP:      28
 MODFLOW STRESS PERIOD      8     CURRENT TIME STEP:     210     ITERATIONS:       6

 -----------------------------------------------------------------------------------

   CUMULATIVE VOLUMES               L**3   RATES FOR THIS TIME STEP           L**3/T
   ------------------                      ------------------------

                                     IN                                         IN
                                     --                                         --
        PRECIPITATION =        1.3303D+07          PRECIPITATION =                  
           STREAMFLOW =                               STREAMFLOW =                  
     GW BOUNDARY FLOW =             92.05       GW BOUNDARY FLOW =              1.24


                                    OUT                                        OUT
                                    ---                                        ---
   EVAPOTRANSPIRATION =        3492015.84     EVAPOTRANSPIRATION =          55466.31
           STREAMFLOW =        3468453.92             STREAMFLOW =          75573.56
     GW BOUNDARY FLOW =           7487.67       GW BOUNDARY FLOW =             35.39

   INFLOWS - OUTFLOWS =        6335565.13     INFLOWS - OUTFLOWS =        -131074.02
             --------                                   --------

 TOTAL STORAGE CHANGE =        6263815.67         STORAGE CHANGE =        -128345.06
       --------------                             --------------
         LAND SURFACE =        2758651.61           LAND SURFACE =        -113752.45
            SOIL ZONE =        6084742.21              SOIL ZONE =         -23221.11
     UNSATURATED ZONE =       -3114262.63       UNSATURATED ZONE =           9637.70
       SATURATED ZONE =         534684.48         SATURATED ZONE =          -1009.21

 OVERALL BUDGET ERROR =          71749.46           BUDGET ERROR =          -2728.96


  PERCENT DISCREPANCY =              0.54    PERCENT DISCREPANCY =             -2.10



1
 SUMMARY VOLUMETRIC BUDGET FOR GSFLOW 
 DATE: 05 05 1991              CUMULATIVE TIME STEP:       5
 MODFLOW STRESS PERIOD      9     CURRENT TIME STEP:     217     ITERATIONS:       6

 -----------------------------------------------------------------------------------

   CUMULATIVE VOLUMES               L**3   RATES FOR THIS TIME STEP           L**3/T
   ------------------                      ------------------------

                                     IN                                         IN
                                     --                                         --
        PRECIPITATION =        1.3510D+07          PRECIPITATION =                  
           STREAMFLOW =                               STREAMFLOW =                  
     GW BOUNDARY FLOW =            100.90       GW BOUNDARY FLOW =              1.28


                                    OUT                                        OUT
                                    ---                                        ---
   EVAPOTRANSPIRATION =        3841972.88     EVAPOTRANSPIRATION =          85080.75
           STREAMFLOW =        3961188.95             STREAMFLOW =          72999.43
     GW BOUNDARY FLOW =           7734.44       GW BOUNDARY FLOW =             35.21

   INFLOWS - OUTFLOWS =        5698912.76     INFLOWS - OUTFLOWS =        -158114.11
             --------                                   --------

 TOTAL STORAGE CHANGE =        5646193.45         STORAGE CHANGE =        -156015.03
       --------------                             --------------
         LAND SURFACE =        2105621.17           LAND SURFACE =        -166214.31
            SOIL ZONE =        6063621.50              SOIL ZONE =           1821.86
     UNSATURATED ZONE =       -3050622.94       UNSATURATED ZONE =           9218.65
       SATURATED ZONE =         527573.73         SATURATED ZONE =           -841.23

 OVERALL BUDGET ERROR =          52719.30           BUDGET ERROR =          -2099.08


  PERCENT DISCREPANCY =              0.39    PERCENT DISCREPANCY =             -1.34



1
 SUMMARY VOLUMETRIC BUDGET FOR GSFLOW 
 DATE: 05 12 1991              CUMULATIVE TIME STEP:      12
 MODFLOW STRESS PERIOD      9     CURRENT TIME STEP:     224     ITERATIONS:      10

 -----------------------------------------------------------------------------------

   CUMULATIVE VOLUMES               L**3   RATES FOR THIS TIME STEP           L**3/T
   ------------------                      ------------------------

                                     IN                                         IN
                                     --                                         --
        PRECIPITATION =        1.4029D+07          PRECIPITATION =                  
           STREAMFLOW =                               STREAMFLOW =                  
     GW BOUNDARY FLOW =            110.01       GW BOUNDARY FLOW =              1.32


                                    OUT                                        OUT
                                    ---                                        ---
   EVAPOTRANSPIRATION =        4212220.81     EVAPOTRANSPIRATION =          62822.36
           STREAMFLOW =        4439238.66             STREAMFLOW =          72448.36
     GW BOUNDARY FLOW =           7979.80       GW BOUNDARY FLOW =             35.02

   INFLOWS - OUTFLOWS =        5369892.89     INFLOWS - OUTFLOWS =        -135304.42
             --------                                   --------

 TOTAL STORAGE CHANGE =        5316161.68         STORAGE CHANGE =        -139575.02
       --------------                             --------------
         LAND SURFACE =        1671151.52           LAND SURFACE =        -195073.28
            SOIL ZONE =        6110822.06              SOIL ZONE =          47223.74
     UNSATURATED ZONE =       -2989615.23       UNSATURATED ZONE =           8426.39
       SATURATED ZONE =         523803.34         SATURATED ZONE =           -151.87

 OVERALL BUDGET ERROR =          53731.21           BUDGET ERROR =           4270.60

  ***WARNING, FLUX RATES OFF > 3%

  PERCENT DISCREPANCY =              0.38    PERCENT DISCREPANCY =              3.11



1
 SUMMARY VOLUMETRIC BUDGET FOR GSFLOW 
 DATE: 05 19 1991              CUMULATIVE TIME STEP:      19
 MODFLOW STRESS PERIOD      9     CURRENT TIME STEP:     231     ITERATIONS:       6

 -----------------------------------------------------------------------------------

   CUMULATIVE VOLUMES               L**3   RATES FOR THIS TIME STEP           L**3/T
   ------------------                      ------------------------

                                     IN                                         IN
                                     --                                         --
        PRECIPITATION =        1.4365D+07          PRECIPITATION =                  
           STREAMFLOW =                               STREAMFLOW =                  
     GW BOUNDARY FLOW =            119.39       GW BOUNDARY FLOW =              1.36


                                    OUT                                        OUT
                                    ---                                        ---
   EVAPOTRANSPIRATION =        4612670.91     EVAPOTRANSPIRATION =          18049.93
           STREAMFLOW =        4885633.91             STREAMFLOW =          52723.11
     GW BOUNDARY FLOW =           8223.55       GW BOUNDARY FLOW =             34.61

   INFLOWS - OUTFLOWS =        4858969.34     INFLOWS - OUTFLOWS =         -70806.30
             --------                                   --------

 TOTAL STORAGE CHANGE =        4781418.71         STORAGE CHANGE =         -75404.36
       --------------                             --------------
         LAND SURFACE =        1131549.54           LAND SURFACE =         -21030.92
            SOIL ZONE =        6059682.66              SOIL ZONE =         -61255.53
     UNSATURATED ZONE =       -2930046.64       UNSATURATED ZONE =           7395.97
       SATURATED ZONE =         520233.16         SATURATED ZONE =           -513.88

 OVERALL BUDGET ERROR =          77550.63           BUDGET ERROR =           4598.06

  ***WARNING, FLUX RATES OFF > 3%

  PERCENT DISCREPANCY =              0.54    PERCENT DISCREPANCY =              6.29



1
 SUMMARY VOLUMETRIC BUDGET FOR GSFLOW 
 DATE: 05 26 1991              CUMULATIVE TIME STEP:      26
 MODFLOW STRESS PERIOD      9     CURRENT TIME STEP:     238     ITERATIONS:       6

 -----------------------------------------------------------------------------------

   CUMULATIVE VOLUMES               L**3   RATES FOR THIS TIME STEP           L**3/T
   ------------------                      ------------------------

                                     IN                                         IN
                                     --                                         --
        PRECIPITATION =        1.4426D+07          PRECIPITATION =                  
           STREAMFLOW =                               STREAMFLOW =                  
     GW BOUNDARY FLOW =            129.05       GW BOUNDARY FLOW =              1.40


                                    OUT                                        OUT
                                    ---                                        ---
   EVAPOTRANSPIRATION =        5260390.49     EVAPOTRANSPIRATION =          71074.91
           STREAMFLOW =        5215125.23             STREAMFLOW =          35251.99
     GW BOUNDARY FLOW =           8464.57       GW BOUNDARY FLOW =             34.19

   INFLOWS - OUTFLOWS =        3942646.35     INFLOWS - OUTFLOWS =        -106359.69
             --------                                   --------

 TOTAL STORAGE CHANGE =        3838942.08         STORAGE CHANGE =        -109133.77
       --------------                             --------------
         LAND SURFACE =         596309.92           LAND SURFACE =         -39567.86
            SOIL ZONE =        5613472.85              SOIL ZONE =         -72829.96
     UNSATURATED ZONE =       -2889137.38       UNSATURATED ZONE =           3521.65
       SATURATED ZONE =         518296.69         SATURATED ZONE =           -257.60

 OVERALL BUDGET ERROR =         103704.28           BUDGET ERROR =           2774.08


  PERCENT DISCREPANCY =              0.72    PERCENT DISCREPANCY =              2.57



1
 SUMMARY VOLUMETRIC BUDGET FOR GSFLOW 
 DATE: 06 02 1991              CUMULATIVE TIME STEP:       2
 MODFLOW STRESS PERIOD     10     CURRENT TIME STEP:     245     ITERATIONS:       6

 -----------------------------------------------------------------------------------

   CUMULATIVE VOLUMES               L**3   RATES FOR THIS TIME STEP           L**3/T
   ------------------                      ------------------------

                                     IN                                         IN
                                     --                                         --
        PRECIPITATION =        1.4671D+07          PRECIPITATION =                  
           STREAMFLOW =                               STREAMFLOW =                  
     GW BOUNDARY FLOW =            138.99       GW BOUNDARY FLOW =              1.44


                                    OUT                                        OUT
                                    ---                                        ---
   EVAPOTRANSPIRATION =        5805379.39     EVAPOTRANSPIRATION =         119065.79
           STREAMFLOW =        5468000.10             STREAMFLOW =          30838.82
     GW BOUNDARY FLOW =           8703.36       GW BOUNDARY FLOW =             33.96

   INFLOWS - OUTFLOWS =        3389030.94     INFLOWS - OUTFLOWS =        -149937.14
             --------                                   --------

 TOTAL STORAGE CHANGE =        3271802.56         STORAGE CHANGE =        -151727.95
       --------------                             --------------
         LAND SURFACE =         342585.53           LAND SURFACE =         -44718.56
            SOIL ZONE =        5288227.75              SOIL ZONE =        -107909.72
     UNSATURATED ZONE =       -2873695.17       UNSATURATED ZONE =           1612.74
       SATURATED ZONE =         514684.45         SATURATED ZONE =           -712.40

 OVERALL BUDGET ERROR =         117228.38           BUDGET ERROR =           1790.81


  PERCENT DISCREPANCY =              0.80    PERCENT DISCREPANCY =              1.19



1
 SUMMARY VOLUMETRIC BUDGET FOR GSFLOW 
 DATE: 06 09 1991              CUMULATIVE TIME STEP:       9
 MODFLOW STRESS PERIOD     10     CURRENT TIME STEP:     252     ITERATIONS:       6

 -----------------------------------------------------------------------------------

   CUMULATIVE VOLUMES               L**3   RATES FOR THIS TIME STEP           L**3/T
   ------------------                      ------------------------

                                     IN                                         IN
                                     --                                         --
        PRECIPITATION =        1.4671D+07          PRECIPITATION =                  
           STREAMFLOW =                               STREAMFLOW =                  
     GW BOUNDARY FLOW =            149.20       GW BOUNDARY FLOW =              1.48


                                    OUT                                        OUT
                                    ---                                        ---
   EVAPOTRANSPIRATION =        6519672.28     EVAPOTRANSPIRATION =         166087.11
           STREAMFLOW =        5644063.81             STREAMFLOW =          20730.87
     GW BOUNDARY FLOW =           8939.78       GW BOUNDARY FLOW =             33.63

   INFLOWS - OUTFLOWS =        2498448.13     INFLOWS - OUTFLOWS =        -186850.13
             --------                                   --------

 TOTAL STORAGE CHANGE =        2372664.39         STORAGE CHANGE =        -187441.62
       --------------                             --------------
         LAND SURFACE =         143816.55           LAND SURFACE =         -32280.14
            SOIL ZONE =        4600094.27              SOIL ZONE =        -151612.33
     UNSATURATED ZONE =       -2877628.75       UNSATURATED ZONE =          -2158.85
       SATURATED ZONE =         506382.32         SATURATED ZONE =          -1390.29

 OVERALL BUDGET ERROR =         125783.74           BUDGET ERROR =            591.49


  PERCENT DISCREPANCY =              0.86    PERCENT DISCREPANCY =              0.32



1
 SUMMARY VOLUMETRIC BUDGET FOR GSFLOW 
 DATE: 06 16 1991              CUMULATIVE TIME STEP:      16
 MODFLOW STRESS PERIOD     10     CURRENT TIME STEP:     259     ITERATIONS:       6

 -----------------------------------------------------------------------------------

   CUMULATIVE VOLUMES               L**3   RATES FOR THIS TIME STEP           L**3/T
   ------------------                      ------------------------

                                     IN                                         IN
                                     --                                         --
        PRECIPITATION =        1.4671D+07          PRECIPITATION =                  
           STREAMFLOW =                               STREAMFLOW =                  
     GW BOUNDARY FLOW =            159.71       GW BOUNDARY FLOW =              1.52


                                    OUT                                        OUT
                                    ---                                        ---
   EVAPOTRANSPIRATION =        7476766.04     EVAPOTRANSPIRATION =         108320.18
           STREAMFLOW =        5766688.64             STREAMFLOW =          16755.41
     GW BOUNDARY FLOW =           9174.11       GW BOUNDARY FLOW =             33.40

   INFLOWS - OUTFLOWS =        1418505.72     INFLOWS - OUTFLOWS =        -125107.47
             --------                                   --------

 TOTAL STORAGE CHANGE =        1289317.70         STORAGE CHANGE =        -125649.53
       --------------                             --------------
         LAND SURFACE =          39366.58           LAND SURFACE =          -6891.90
            SOIL ZONE =        3680147.84              SOIL ZONE =        -106250.20
     UNSATURATED ZONE =       -2921326.26       UNSATURATED ZONE =          -9575.03
       SATURATED ZONE =         491129.54         SATURATED ZONE =          -2932.40

 OVERALL BUDGET ERROR =         129188.02           BUDGET ERROR =            542.06


  PERCENT DISCREPANCY =              0.88    PERCENT DISCREPANCY =              0.43



1
 SUMMARY VOLUMETRIC BUDGET FOR GSFLOW 
 DATE: 06 23 1991              CUMULATIVE TIME STEP:      23
 MODFLOW STRESS PERIOD     10     CURRENT TIME STEP:     266     ITERATIONS:       6

 -----------------------------------------------------------------------------------

   CUMULATIVE VOLUMES               L**3   RATES FOR THIS TIME STEP           L**3/T
   ------------------                      ------------------------

                                     IN                                         IN
                                     --                                         --
        PRECIPITATION =        1.4671D+07          PRECIPITATION =                  
           STREAMFLOW =                               STREAMFLOW =                  
     GW BOUNDARY FLOW =            170.44       GW BOUNDARY FLOW =              1.52


                                    OUT                                        OUT
                                    ---                                        ---
   EVAPOTRANSPIRATION =        7956814.84     EVAPOTRANSPIRATION =          34582.26
           STREAMFLOW =        5880538.72             STREAMFLOW =          15982.45
     GW BOUNDARY FLOW =           9407.23       GW BOUNDARY FLOW =             33.24

   INFLOWS - OUTFLOWS =         824384.45     INFLOWS - OUTFLOWS =         -50596.43
             --------                                   --------

 TOTAL STORAGE CHANGE =         689543.45         STORAGE CHANGE =         -51393.46
       --------------                             --------------
         LAND SURFACE =          15682.85           LAND SURFACE =          -1548.12
            SOIL ZONE =        3202185.90              SOIL ZONE =         -36950.27
     UNSATURATED ZONE =       -2993799.44       UNSATURATED ZONE =          -8890.01
       SATURATED ZONE =         465474.14         SATURATED ZONE =          -4005.07

 OVERALL BUDGET ERROR =         134841.00           BUDGET ERROR =            797.04


  PERCENT DISCREPANCY =              0.92    PERCENT DISCREPANCY =              1.56



1
 SUMMARY VOLUMETRIC BUDGET FOR GSFLOW 
 DATE: 06 30 1991              CUMULATIVE TIME STEP:      30
 MODFLOW STRESS PERIOD     10     CURRENT TIME STEP:     273     ITERATIONS:       6

 -----------------------------------------------------------------------------------

   CUMULATIVE VOLUMES               L**3   RATES FOR THIS TIME STEP           L**3/T
   ------------------                      ------------------------

[...]

 TOTAL STORAGE CHANGE =       -6091676.96         STORAGE CHANGE =          20755.67
       --------------                             --------------
         LAND SURFACE =          36958.16           LAND SURFACE =          36958.16
            SOIL ZONE =         788391.70              SOIL ZONE =          -1816.32
     UNSATURATED ZONE =       -3426899.65       UNSATURATED ZONE =          -4247.31
       SATURATED ZONE =       -3490127.17         SATURATED ZONE =         -10138.87

 OVERALL BUDGET ERROR =       -3192480.48           BUDGET ERROR =            -61.99

  ***WARNING, CUMULATIVE VOLUME OFF > 5%

  PERCENT DISCREPANCY =             -8.17    PERCENT DISCREPANCY =             -0.14



1
 SUMMARY VOLUMETRIC BUDGET FOR GSFLOW 
 DATE: 06 21 1992              CUMULATIVE TIME STEP:      21
 MODFLOW STRESS PERIOD     22     CURRENT TIME STEP:     630     ITERATIONS:       7

 -----------------------------------------------------------------------------------

   CUMULATIVE VOLUMES               L**3   RATES FOR THIS TIME STEP           L**3/T
   ------------------                      ------------------------

                                     IN                                         IN
                                     --                                         --
        PRECIPITATION =        3.1559D+07          PRECIPITATION =                  
           STREAMFLOW =                               STREAMFLOW =                  
     GW BOUNDARY FLOW =            971.45       GW BOUNDARY FLOW =              2.98


                                    OUT                                        OUT
                                    ---                                        ---
   EVAPOTRANSPIRATION =        2.4882D+07     EVAPOTRANSPIRATION =          86538.90
           STREAMFLOW =        1.6202D+07             STREAMFLOW =          10301.67
     GW BOUNDARY FLOW =          20570.36       GW BOUNDARY FLOW =             28.61

   INFLOWS - OUTFLOWS =       -9544167.42     INFLOWS - OUTFLOWS =         -96866.20
             --------                                   --------

 TOTAL STORAGE CHANGE =       -6348201.76         STORAGE CHANGE =         -95579.51
       --------------                             --------------
         LAND SURFACE =                             LAND SURFACE =                  
            SOIL ZONE =         712657.06              SOIL ZONE =         -65156.85
     UNSATURATED ZONE =       -3464491.28       UNSATURATED ZONE =          -8293.54
       SATURATED ZONE =       -3596367.54         SATURATED ZONE =         -22129.12

 OVERALL BUDGET ERROR =       -3195965.66           BUDGET ERROR =          -1286.69

  ***WARNING, CUMULATIVE VOLUME OFF > 5%

  PERCENT DISCREPANCY =             -8.09    PERCENT DISCREPANCY =             -1.34



1
 SUMMARY VOLUMETRIC BUDGET FOR GSFLOW 
 DATE: 06 28 1992              CUMULATIVE TIME STEP:      28
 MODFLOW STRESS PERIOD     22     CURRENT TIME STEP:     637     ITERATIONS:       5

 -----------------------------------------------------------------------------------

   CUMULATIVE VOLUMES               L**3   RATES FOR THIS TIME STEP           L**3/T
   ------------------                      ------------------------

                                     IN                                         IN
                                     --                                         --
        PRECIPITATION =        3.1747D+07          PRECIPITATION =          14447.86
           STREAMFLOW =                               STREAMFLOW =                  
     GW BOUNDARY FLOW =            992.41       GW BOUNDARY FLOW =              3.01


                                    OUT                                        OUT
                                    ---                                        ---
   EVAPOTRANSPIRATION =        2.5367D+07     EVAPOTRANSPIRATION =          40739.01
           STREAMFLOW =        1.6273D+07             STREAMFLOW =           9910.07
     GW BOUNDARY FLOW =          20770.31       GW BOUNDARY FLOW =             28.54

   INFLOWS - OUTFLOWS =       -9912413.99     INFLOWS - OUTFLOWS =         -36226.74
             --------                                   --------

 TOTAL STORAGE CHANGE =       -6709887.79         STORAGE CHANGE =         -35289.71
       --------------                             --------------
         LAND SURFACE =          14243.44           LAND SURFACE =          14243.44
            SOIL ZONE =         526343.53              SOIL ZONE =         -26128.68
     UNSATURATED ZONE =       -3510721.40       UNSATURATED ZONE =          -4907.16
       SATURATED ZONE =       -3739753.37         SATURATED ZONE =         -18497.31

 OVERALL BUDGET ERROR =       -3202526.20           BUDGET ERROR =           -937.04

  ***WARNING, CUMULATIVE VOLUME OFF > 5%

  PERCENT DISCREPANCY =             -7.99    PERCENT DISCREPANCY =             -1.87



1
 SUMMARY VOLUMETRIC BUDGET FOR GSFLOW 
 DATE: 07 05 1992              CUMULATIVE TIME STEP:       5
 MODFLOW STRESS PERIOD     23     CURRENT TIME STEP:     644     ITERATIONS:       6

 -----------------------------------------------------------------------------------

   CUMULATIVE VOLUMES               L**3   RATES FOR THIS TIME STEP           L**3/T
   ------------------                      ------------------------

                                     IN                                         IN
                                     --                                         --
        PRECIPITATION =        3.2159D+07          PRECIPITATION =                  
           STREAMFLOW =                               STREAMFLOW =                  
     GW BOUNDARY FLOW =           1013.56       GW BOUNDARY FLOW =              3.03


                                    OUT                                        OUT
                                    ---                                        ---
   EVAPOTRANSPIRATION =        2.5721D+07     EVAPOTRANSPIRATION =          54348.81
           STREAMFLOW =        1.6345D+07             STREAMFLOW =           9612.35
     GW BOUNDARY FLOW =          20969.78       GW BOUNDARY FLOW =             28.35

   INFLOWS - OUTFLOWS =       -9927240.22     INFLOWS - OUTFLOWS =         -63986.48
             --------                                   --------

 TOTAL STORAGE CHANGE =       -6722414.59         STORAGE CHANGE =         -62791.87
       --------------                             --------------
         LAND SURFACE =                             LAND SURFACE =                  
            SOIL ZONE =         655889.73              SOIL ZONE =         -38498.18
     UNSATURATED ZONE =       -3534245.71       UNSATURATED ZONE =          -4488.47
       SATURATED ZONE =       -3844058.61         SATURATED ZONE =         -19805.22

 OVERALL BUDGET ERROR =       -3204825.62           BUDGET ERROR =          -1194.61

  ***WARNING, CUMULATIVE VOLUME OFF > 5%

  PERCENT DISCREPANCY =             -7.92    PERCENT DISCREPANCY =             -1.88



1
 SUMMARY VOLUMETRIC BUDGET FOR GSFLOW 
 DATE: 07 12 1992              CUMULATIVE TIME STEP:      12
 MODFLOW STRESS PERIOD     23     CURRENT TIME STEP:     651     ITERATIONS:       6

 -----------------------------------------------------------------------------------

   CUMULATIVE VOLUMES               L**3   RATES FOR THIS TIME STEP           L**3/T
   ------------------                      ------------------------

                                     IN                                         IN
                                     --                                         --
        PRECIPITATION =        3.2210D+07          PRECIPITATION =          51304.67
           STREAMFLOW =                               STREAMFLOW =                  
     GW BOUNDARY FLOW =           1034.80       GW BOUNDARY FLOW =              3.03


                                    OUT                                        OUT
                                    ---                                        ---
   EVAPOTRANSPIRATION =        2.6123D+07     EVAPOTRANSPIRATION =          48621.89
           STREAMFLOW =        1.6406D+07             STREAMFLOW =           8091.77
     GW BOUNDARY FLOW =          21166.68       GW BOUNDARY FLOW =             27.93

   INFLOWS - OUTFLOWS =       -1.0339D+07     INFLOWS - OUTFLOWS =          -5433.89
             --------                                   --------

 TOTAL STORAGE CHANGE =       -7124811.24         STORAGE CHANGE =          -4333.29
       --------------                             --------------
         LAND SURFACE =          34155.95           LAND SURFACE =          34155.95
            SOIL ZONE =         404637.16              SOIL ZONE =         -13289.86
     UNSATURATED ZONE =       -3560197.06       UNSATURATED ZONE =          -2955.48
       SATURATED ZONE =       -4003407.29         SATURATED ZONE =         -22243.89

 OVERALL BUDGET ERROR =       -3214156.91           BUDGET ERROR =          -1100.61

  ***WARNING, CUMULATIVE VOLUME OFF > 5%

  PERCENT DISCREPANCY =             -7.85    PERCENT DISCREPANCY =             -1.96



1
 SUMMARY VOLUMETRIC BUDGET FOR GSFLOW 
 DATE: 07 19 1992              CUMULATIVE TIME STEP:      19
 MODFLOW STRESS PERIOD     23     CURRENT TIME STEP:     658     ITERATIONS:       6

 -----------------------------------------------------------------------------------

   CUMULATIVE VOLUMES               L**3   RATES FOR THIS TIME STEP           L**3/T
   ------------------                      ------------------------

                                     IN                                         IN
                                     --                                         --
        PRECIPITATION =        3.2326D+07          PRECIPITATION =                  
           STREAMFLOW =                               STREAMFLOW =                  
     GW BOUNDARY FLOW =           1055.95       GW BOUNDARY FLOW =              3.02


                                    OUT                                        OUT
                                    ---                                        ---
   EVAPOTRANSPIRATION =        2.6588D+07     EVAPOTRANSPIRATION =          47741.53
           STREAMFLOW =        1.6453D+07             STREAMFLOW =           6332.86
     GW BOUNDARY FLOW =          21361.05       GW BOUNDARY FLOW =             27.70

   INFLOWS - OUTFLOWS =       -1.0735D+07     INFLOWS - OUTFLOWS =         -54099.08
             --------                                   --------

 TOTAL STORAGE CHANGE =       -7510811.59         STORAGE CHANGE =         -52692.02
       --------------                             --------------
         LAND SURFACE =                             LAND SURFACE =                  
            SOIL ZONE =         251475.56              SOIL ZONE =         -25792.51
     UNSATURATED ZONE =       -3580310.48       UNSATURATED ZONE =          -2896.72
       SATURATED ZONE =       -4181976.67         SATURATED ZONE =         -24002.79

 OVERALL BUDGET ERROR =       -3224680.68           BUDGET ERROR =          -1407.06

  ***WARNING, CUMULATIVE VOLUME OFF > 5%

  PERCENT DISCREPANCY =             -7.78    PERCENT DISCREPANCY =             -2.64



1
 SUMMARY VOLUMETRIC BUDGET FOR GSFLOW 
 DATE: 07 26 1992              CUMULATIVE TIME STEP:      26
 MODFLOW STRESS PERIOD     23     CURRENT TIME STEP:     665     ITERATIONS:       6

 -----------------------------------------------------------------------------------

   CUMULATIVE VOLUMES               L**3   RATES FOR THIS TIME STEP           L**3/T
   ------------------                      ------------------------

                                     IN                                         IN
                                     --                                         --
        PRECIPITATION =        3.2326D+07          PRECIPITATION =                  
           STREAMFLOW =                               STREAMFLOW =                  
     GW BOUNDARY FLOW =           1077.05       GW BOUNDARY FLOW =              3.01


                                    OUT                                        OUT
                                    ---                                        ---
   EVAPOTRANSPIRATION =        2.6881D+07     EVAPOTRANSPIRATION =          46393.06
           STREAMFLOW =        1.6494D+07             STREAMFLOW =           4799.57
     GW BOUNDARY FLOW =          21554.34       GW BOUNDARY FLOW =             27.48

   INFLOWS - OUTFLOWS =       -1.1070D+07     INFLOWS - OUTFLOWS =         -51217.09
             --------                                   --------

 TOTAL STORAGE CHANGE =       -7835601.54         STORAGE CHANGE =         -49611.11
       --------------                             --------------
         LAND SURFACE =                             LAND SURFACE =                  
            SOIL ZONE =         107619.19              SOIL ZONE =         -21303.25
     UNSATURATED ZONE =       -3596973.60       UNSATURATED ZONE =          -2073.96
       SATURATED ZONE =       -4346247.13         SATURATED ZONE =         -26233.90

 OVERALL BUDGET ERROR =       -3234230.16           BUDGET ERROR =          -1605.98

  ***WARNING, CUMULATIVE VOLUME OFF > 5%
  ***WARNING, FLUX RATES OFF > 3%

  PERCENT DISCREPANCY =             -7.74    PERCENT DISCREPANCY =             -3.19



1
 SUMMARY VOLUMETRIC BUDGET FOR GSFLOW 
 DATE: 08 02 1992              CUMULATIVE TIME STEP:       2
 MODFLOW STRESS PERIOD     24     CURRENT TIME STEP:     672     ITERATIONS:       5

 -----------------------------------------------------------------------------------

   CUMULATIVE VOLUMES               L**3   RATES FOR THIS TIME STEP           L**3/T
   ------------------                      ------------------------

                                     IN                                         IN
                                     --                                         --
        PRECIPITATION =        3.2326D+07          PRECIPITATION =                  
           STREAMFLOW =                               STREAMFLOW =                  
     GW BOUNDARY FLOW =           1098.15       GW BOUNDARY FLOW =              3.02


                                    OUT                                        OUT
                                    ---                                        ---
   EVAPOTRANSPIRATION =        2.7193D+07     EVAPOTRANSPIRATION =          39863.16
           STREAMFLOW =        1.6523D+07             STREAMFLOW =           4078.23
     GW BOUNDARY FLOW =          21745.68       GW BOUNDARY FLOW =             27.27

   INFLOWS - OUTFLOWS =       -1.1411D+07     INFLOWS - OUTFLOWS =         -43965.65
             --------                                   --------

 TOTAL STORAGE CHANGE =       -8165667.98         STORAGE CHANGE =         -42625.90
       --------------                             --------------
         LAND SURFACE =                             LAND SURFACE =                  
            SOIL ZONE =         -23096.10              SOIL ZONE =         -15457.22
     UNSATURATED ZONE =       -3609605.62       UNSATURATED ZONE =          -1705.96
       SATURATED ZONE =       -4532966.25         SATURATED ZONE =         -25462.72

 OVERALL BUDGET ERROR =       -3245579.94           BUDGET ERROR =          -1339.75

  ***WARNING, CUMULATIVE VOLUME OFF > 5%
  ***WARNING, FLUX RATES OFF > 3%

  PERCENT DISCREPANCY =             -7.71    PERCENT DISCREPANCY =             -3.09



1
 SUMMARY VOLUMETRIC BUDGET FOR GSFLOW 
 DATE: 08 09 1992              CUMULATIVE TIME STEP:       9
 MODFLOW STRESS PERIOD     24     CURRENT TIME STEP:     679     ITERATIONS:       7

 -----------------------------------------------------------------------------------

   CUMULATIVE VOLUMES               L**3   RATES FOR THIS TIME STEP           L**3/T
   ------------------                      ------------------------

                                     IN                                         IN
                                     --                                         --
        PRECIPITATION =        3.2326D+07          PRECIPITATION =                  
           STREAMFLOW =                               STREAMFLOW =                  
     GW BOUNDARY FLOW =           1119.28       GW BOUNDARY FLOW =              3.02


                                    OUT                                        OUT
                                    ---                                        ---
   EVAPOTRANSPIRATION =        2.7415D+07     EVAPOTRANSPIRATION =          33078.46
           STREAMFLOW =        1.6554D+07             STREAMFLOW =           4023.91
     GW BOUNDARY FLOW =          21936.43       GW BOUNDARY FLOW =             27.16

   INFLOWS - OUTFLOWS =       -1.1665D+07     INFLOWS - OUTFLOWS =         -37126.51
             --------                                   --------

 TOTAL STORAGE CHANGE =       -8411204.39         STORAGE CHANGE =         -35873.01
       --------------                             --------------
         LAND SURFACE =                             LAND SURFACE =                  
            SOIL ZONE =        -101051.88              SOIL ZONE =         -10758.95
     UNSATURATED ZONE =       -3621083.16       UNSATURATED ZONE =          -1644.99
       SATURATED ZONE =       -4689069.35         SATURATED ZONE =         -23469.07

 OVERALL BUDGET ERROR =       -3253634.59           BUDGET ERROR =          -1253.50

  ***WARNING, CUMULATIVE VOLUME OFF > 5%
  ***WARNING, FLUX RATES OFF > 3%

  PERCENT DISCREPANCY =             -7.68    PERCENT DISCREPANCY =             -3.43



1
 SUMMARY VOLUMETRIC BUDGET FOR GSFLOW 
 DATE: 08 16 1992              CUMULATIVE TIME STEP:      16
 MODFLOW STRESS PERIOD     24     CURRENT TIME STEP:     686     ITERATIONS:       7

 -----------------------------------------------------------------------------------

   CUMULATIVE VOLUMES               L**3   RATES FOR THIS TIME STEP           L**3/T
   ------------------                      ------------------------

                                     IN                                         IN
                                     --                                         --
        PRECIPITATION =        3.2395D+07          PRECIPITATION =                  
           STREAMFLOW =                               STREAMFLOW =                  
     GW BOUNDARY FLOW =           1140.53       GW BOUNDARY FLOW =              3.05


                                    OUT                                        OUT
                                    ---                                        ---
   EVAPOTRANSPIRATION =        2.7701D+07     EVAPOTRANSPIRATION =          46129.69
           STREAMFLOW =        1.6578D+07             STREAMFLOW =           3439.52
     GW BOUNDARY FLOW =          22125.70       GW BOUNDARY FLOW =             27.00

   INFLOWS - OUTFLOWS =       -1.1905D+07     INFLOWS - OUTFLOWS =         -49593.16
             --------                                   --------

 TOTAL STORAGE CHANGE =       -8641457.32         STORAGE CHANGE =         -48167.36
       --------------                             --------------
         LAND SURFACE =                             LAND SURFACE =         -15250.62
            SOIL ZONE =        -151710.68              SOIL ZONE =          -8640.47
     UNSATURATED ZONE =       -3631870.70       UNSATURATED ZONE =          -1450.58
       SATURATED ZONE =       -4857875.94         SATURATED ZONE =         -22825.69

 OVERALL BUDGET ERROR =       -3263419.34           BUDGET ERROR =          -1425.80

  ***WARNING, CUMULATIVE VOLUME OFF > 5%

  PERCENT DISCREPANCY =             -7.65    PERCENT DISCREPANCY =             -2.92



