                                  MODFLOW-NWT-SWR1 
      U.S. GEOLOGICAL SURVEY MODULAR FINITE-DIFFERENCE GROUNDWATER-FLOW MODEL
                            VERSION 1.3.0 06/01/2022
                    BASED ON MODFLOW-2005 VERSION 1.12.00 02/03/2017

 LIST FILE: .\output\Pr2MFNWT.LST
                         UNIT    1

 OPENING .\input\Pr2.BA6
 FILE TYPE:BAS6   UNIT    2   STATUS:OLD    
 FORMAT:FORMATTED              ACCESS:SEQUENTIAL          

 OPENING .\input\Pr2.DIS
 FILE TYPE:DIS   UNIT   10   STATUS:OLD    
 FORMAT:FORMATTED              ACCESS:SEQUENTIAL          

 OPENING .\input\Pr2.RCH
 FILE TYPE:RCH   UNIT   18   STATUS:OLD    
 FORMAT:FORMATTED              ACCESS:SEQUENTIAL          

 OPENING .\input\Pr2.OC
 FILE TYPE:OC   UNIT   20   STATUS:OLD    
 FORMAT:FORMATTED              ACCESS:SEQUENTIAL          

 OPENING .\output\Pr2MFNWT.BUD
 FILE TYPE:DATA(BINARY)   UNIT   32   STATUS:UNKNOWN
 FORMAT:UNFORMATTED            ACCESS:STREAM              

 OPENING .\input\Pr2.NWT
 FILE TYPE:NWT   UNIT   34   STATUS:OLD    
 FORMAT:FORMATTED              ACCESS:SEQUENTIAL          

 OPENING .\input\Pr2.UPW
 FILE TYPE:UPW   UNIT   35   STATUS:OLD    
 FORMAT:FORMATTED              ACCESS:SEQUENTIAL          

 OPENING .\output\Pr2.out
 FILE TYPE:DATA   UNIT   51   STATUS:UNKNOWN
 FORMAT:FORMATTED              ACCESS:SEQUENTIAL          

 BAS -- BASIC PACKAGE, VERSION 1.1.4, 4/01/2018 INPUT READ FROM UNIT    2
 
 MODFLOW was compiled using mixed precision
 Precision of REAL variables:           6
 Precision of DOUBLE PRECISION variables:          15

 DISCRETIZATION INPUT DATA READ FROM UNIT   10
   14 LAYERS        40 ROWS        40 COLUMNS
    3 STRESS PERIOD(S) IN SIMULATION
 MODEL TIME UNIT IS DAYS
 MODEL LENGTH UNIT IS UNDEFINED
  Confining bed flag for each layer:
   0   0   0   0   0   0   0   0   0   0   0   0   0   0

                     DELR =   125.000    

                     DELC =   125.000    

 TOP ELEVATION OF LAYER 1 =   80.0000    

   MODEL LAYER BOTTOM EL. =   65.0000     FOR LAYER   1

   MODEL LAYER BOTTOM EL. =   60.0000     FOR LAYER   2

   MODEL LAYER BOTTOM EL. =   55.0000     FOR LAYER   3

   MODEL LAYER BOTTOM EL. =   50.0000     FOR LAYER   4

   MODEL LAYER BOTTOM EL. =   45.0000     FOR LAYER   5

   MODEL LAYER BOTTOM EL. =   40.0000     FOR LAYER   6

   MODEL LAYER BOTTOM EL. =   35.0000     FOR LAYER   7

   MODEL LAYER BOTTOM EL. =   30.0000     FOR LAYER   8

   MODEL LAYER BOTTOM EL. =   25.0000     FOR LAYER   9

   MODEL LAYER BOTTOM EL. =   20.0000     FOR LAYER  10

   MODEL LAYER BOTTOM EL. =   15.0000     FOR LAYER  11

   MODEL LAYER BOTTOM EL. =   10.0000     FOR LAYER  12

   MODEL LAYER BOTTOM EL. =   5.00000     FOR LAYER  13

   MODEL LAYER BOTTOM EL. =   0.00000     FOR LAYER  14


 STRESS PERIOD     LENGTH       TIME STEPS     MULTIPLIER FOR DELT    SS FLAG
 ----------------------------------------------------------------------------
        1         190.0000         10                    1.000         TR
        2         518.0000          2                    1.000         TR
        3         1922.000         17                    1.000         TR

 TRANSIENT SIMULATION



 
 #BCF2 sample problem 2                                                          
 #Mounding under a recharge pond                                                 
 THE FREE FORMAT OPTION HAS BEEN SELECTED

           BOUNDARY ARRAY =              1 FOR LAYER   1

           BOUNDARY ARRAY =              1 FOR LAYER   2

           BOUNDARY ARRAY =              1 FOR LAYER   3

           BOUNDARY ARRAY =              1 FOR LAYER   4

           BOUNDARY ARRAY =              1 FOR LAYER   5

           BOUNDARY ARRAY =              1 FOR LAYER   6

           BOUNDARY ARRAY =              1 FOR LAYER   7

           BOUNDARY ARRAY =              1 FOR LAYER   8

           BOUNDARY ARRAY =              1 FOR LAYER   9



                     BOUNDARY ARRAY FOR LAYER  10
 READING ON UNIT    2 WITH FORMAT: (20I4)              

       1  2  3  4  5  6  7  8  9 10 11 12 13 14 15 16 17 18 19 20 21 22 23 24 25 26 27 28 29 30 31 32 33 34 35 36 37 38 39 40
 ............................................................................................................................
   1   1  1  1  1  1  1  1  1  1  1  1  1  1  1  1  1  1  1  1  1  1  1  1  1  1  1  1  1  1  1  1  1  1  1  1  1  1  1  1 -1
   2   1  1  1  1  1  1  1  1  1  1  1  1  1  1  1  1  1  1  1  1  1  1  1  1  1  1  1  1  1  1  1  1  1  1  1  1  1  1  1 -1
   3   1  1  1  1  1  1  1  1  1  1  1  1  1  1  1  1  1  1  1  1  1  1  1  1  1  1  1  1  1  1  1  1  1  1  1  1  1  1  1 -1
   4   1  1  1  1  1  1  1  1  1  1  1  1  1  1  1  1  1  1  1  1  1  1  1  1  1  1  1  1  1  1  1  1  1  1  1  1  1  1  1 -1
   5   1  1  1  1  1  1  1  1  1  1  1  1  1  1  1  1  1  1  1  1  1  1  1  1  1  1  1  1  1  1  1  1  1  1  1  1  1  1  1 -1
   6   1  1  1  1  1  1  1  1  1  1  1  1  1  1  1  1  1  1  1  1  1  1  1  1  1  1  1  1  1  1  1  1  1  1  1  1  1  1  1 -1
   7   1  1  1  1  1  1  1  1  1  1  1  1  1  1  1  1  1  1  1  1  1  1  1  1  1  1  1  1  1  1  1  1  1  1  1  1  1  1  1 -1
   8   1  1  1  1  1  1  1  1  1  1  1  1  1  1  1  1  1  1  1  1  1  1  1  1  1  1  1  1  1  1  1  1  1  1  1  1  1  1  1 -1
   9   1  1  1  1  1  1  1  1  1  1  1  1  1  1  1  1  1  1  1  1  1  1  1  1  1  1  1  1  1  1  1  1  1  1  1  1  1  1  1 -1
  10   1  1  1  1  1  1  1  1  1  1  1  1  1  1  1  1  1  1  1  1  1  1  1  1  1  1  1  1  1  1  1  1  1  1  1  1  1  1  1 -1
  11   1  1  1  1  1  1  1  1  1  1  1  1  1  1  1  1  1  1  1  1  1  1  1  1  1  1  1  1  1  1  1  1  1  1  1  1  1  1  1 -1
  12   1  1  1  1  1  1  1  1  1  1  1  1  1  1  1  1  1  1  1  1  1  1  1  1  1  1  1  1  1  1  1  1  1  1  1  1  1  1  1 -1
  13   1  1  1  1  1  1  1  1  1  1  1  1  1  1  1  1  1  1  1  1  1  1  1  1  1  1  1  1  1  1  1  1  1  1  1  1  1  1  1 -1
  14   1  1  1  1  1  1  1  1  1  1  1  1  1  1  1  1  1  1  1  1  1  1  1  1  1  1  1  1  1  1  1  1  1  1  1  1  1  1  1 -1
  15   1  1  1  1  1  1  1  1  1  1  1  1  1  1  1  1  1  1  1  1  1  1  1  1  1  1  1  1  1  1  1  1  1  1  1  1  1  1  1 -1
  16   1  1  1  1  1  1  1  1  1  1  1  1  1  1  1  1  1  1  1  1  1  1  1  1  1  1  1  1  1  1  1  1  1  1  1  1  1  1  1 -1
  17   1  1  1  1  1  1  1  1  1  1  1  1  1  1  1  1  1  1  1  1  1  1  1  1  1  1  1  1  1  1  1  1  1  1  1  1  1  1  1 -1
  18   1  1  1  1  1  1  1  1  1  1  1  1  1  1  1  1  1  1  1  1  1  1  1  1  1  1  1  1  1  1  1  1  1  1  1  1  1  1  1 -1
  19   1  1  1  1  1  1  1  1  1  1  1  1  1  1  1  1  1  1  1  1  1  1  1  1  1  1  1  1  1  1  1  1  1  1  1  1  1  1  1 -1
  20   1  1  1  1  1  1  1  1  1  1  1  1  1  1  1  1  1  1  1  1  1  1  1  1  1  1  1  1  1  1  1  1  1  1  1  1  1  1  1 -1
  21   1  1  1  1  1  1  1  1  1  1  1  1  1  1  1  1  1  1  1  1  1  1  1  1  1  1  1  1  1  1  1  1  1  1  1  1  1  1  1 -1
  22   1  1  1  1  1  1  1  1  1  1  1  1  1  1  1  1  1  1  1  1  1  1  1  1  1  1  1  1  1  1  1  1  1  1  1  1  1  1  1 -1
  23   1  1  1  1  1  1  1  1  1  1  1  1  1  1  1  1  1  1  1  1  1  1  1  1  1  1  1  1  1  1  1  1  1  1  1  1  1  1  1 -1
  24   1  1  1  1  1  1  1  1  1  1  1  1  1  1  1  1  1  1  1  1  1  1  1  1  1  1  1  1  1  1  1  1  1  1  1  1  1  1  1 -1
  25   1  1  1  1  1  1  1  1  1  1  1  1  1  1  1  1  1  1  1  1  1  1  1  1  1  1  1  1  1  1  1  1  1  1  1  1  1  1  1 -1
  26   1  1  1  1  1  1  1  1  1  1  1  1  1  1  1  1  1  1  1  1  1  1  1  1  1  1  1  1  1  1  1  1  1  1  1  1  1  1  1 -1
  27   1  1  1  1  1  1  1  1  1  1  1  1  1  1  1  1  1  1  1  1  1  1  1  1  1  1  1  1  1  1  1  1  1  1  1  1  1  1  1 -1
  28   1  1  1  1  1  1  1  1  1  1  1  1  1  1  1  1  1  1  1  1  1  1  1  1  1  1  1  1  1  1  1  1  1  1  1  1  1  1  1 -1
  29   1  1  1  1  1  1  1  1  1  1  1  1  1  1  1  1  1  1  1  1  1  1  1  1  1  1  1  1  1  1  1  1  1  1  1  1  1  1  1 -1
  30   1  1  1  1  1  1  1  1  1  1  1  1  1  1  1  1  1  1  1  1  1  1  1  1  1  1  1  1  1  1  1  1  1  1  1  1  1  1  1 -1
  31   1  1  1  1  1  1  1  1  1  1  1  1  1  1  1  1  1  1  1  1  1  1  1  1  1  1  1  1  1  1  1  1  1  1  1  1  1  1  1 -1
  32   1  1  1  1  1  1  1  1  1  1  1  1  1  1  1  1  1  1  1  1  1  1  1  1  1  1  1  1  1  1  1  1  1  1  1  1  1  1  1 -1
  33   1  1  1  1  1  1  1  1  1  1  1  1  1  1  1  1  1  1  1  1  1  1  1  1  1  1  1  1  1  1  1  1  1  1  1  1  1  1  1 -1
  34   1  1  1  1  1  1  1  1  1  1  1  1  1  1  1  1  1  1  1  1  1  1  1  1  1  1  1  1  1  1  1  1  1  1  1  1  1  1  1 -1
  35   1  1  1  1  1  1  1  1  1  1  1  1  1  1  1  1  1  1  1  1  1  1  1  1  1  1  1  1  1  1  1  1  1  1  1  1  1  1  1 -1
  36   1  1  1  1  1  1  1  1  1  1  1  1  1  1  1  1  1  1  1  1  1  1  1  1  1  1  1  1  1  1  1  1  1  1  1  1  1  1  1 -1
  37   1  1  1  1  1  1  1  1  1  1  1  1  1  1  1  1  1  1  1  1  1  1  1  1  1  1  1  1  1  1  1  1  1  1  1  1  1  1  1 -1
  38   1  1  1  1  1  1  1  1  1  1  1  1  1  1  1  1  1  1  1  1  1  1  1  1  1  1  1  1  1  1  1  1  1  1  1  1  1  1  1 -1
  39   1  1  1  1  1  1  1  1  1  1  1  1  1  1  1  1  1  1  1  1  1  1  1  1  1  1  1  1  1  1  1  1  1  1  1  1  1  1  1 -1
  40  -1 -1 -1 -1 -1 -1 -1 -1 -1 -1 -1 -1 -1 -1 -1 -1 -1 -1 -1 -1 -1 -1 -1 -1 -1 -1 -1 -1 -1 -1 -1 -1 -1 -1 -1 -1 -1 -1 -1 -1



                     BOUNDARY ARRAY FOR LAYER  11
 READING ON UNIT    2 WITH FORMAT: (20I4)              

       1  2  3  4  5  6  7  8  9 10 11 12 13 14 15 16 17 18 19 20 21 22 23 24 25 26 27 28 29 30 31 32 33 34 35 36 37 38 39 40
 ............................................................................................................................
   1   1  1  1  1  1  1  1  1  1  1  1  1  1  1  1  1  1  1  1  1  1  1  1  1  1  1  1  1  1  1  1  1  1  1  1  1  1  1  1 -1
   2   1  1  1  1  1  1  1  1  1  1  1  1  1  1  1  1  1  1  1  1  1  1  1  1  1  1  1  1  1  1  1  1  1  1  1  1  1  1  1 -1
   3   1  1  1  1  1  1  1  1  1  1  1  1  1  1  1  1  1  1  1  1  1  1  1  1  1  1  1  1  1  1  1  1  1  1  1  1  1  1  1 -1
   4   1  1  1  1  1  1  1  1  1  1  1  1  1  1  1  1  1  1  1  1  1  1  1  1  1  1  1  1  1  1  1  1  1  1  1  1  1  1  1 -1
   5   1  1  1  1  1  1  1  1  1  1  1  1  1  1  1  1  1  1  1  1  1  1  1  1  1  1  1  1  1  1  1  1  1  1  1  1  1  1  1 -1
   6   1  1  1  1  1  1  1  1  1  1  1  1  1  1  1  1  1  1  1  1  1  1  1  1  1  1  1  1  1  1  1  1  1  1  1  1  1  1  1 -1
   7   1  1  1  1  1  1  1  1  1  1  1  1  1  1  1  1  1  1  1  1  1  1  1  1  1  1  1  1  1  1  1  1  1  1  1  1  1  1  1 -1
   8   1  1  1  1  1  1  1  1  1  1  1  1  1  1  1  1  1  1  1  1  1  1  1  1  1  1  1  1  1  1  1  1  1  1  1  1  1  1  1 -1
   9   1  1  1  1  1  1  1  1  1  1  1  1  1  1  1  1  1  1  1  1  1  1  1  1  1  1  1  1  1  1  1  1  1  1  1  1  1  1  1 -1
  10   1  1  1  1  1  1  1  1  1  1  1  1  1  1  1  1  1  1  1  1  1  1  1  1  1  1  1  1  1  1  1  1  1  1  1  1  1  1  1 -1
  11   1  1  1  1  1  1  1  1  1  1  1  1  1  1  1  1  1  1  1  1  1  1  1  1  1  1  1  1  1  1  1  1  1  1  1  1  1  1  1 -1
  12   1  1  1  1  1  1  1  1  1  1  1  1  1  1  1  1  1  1  1  1  1  1  1  1  1  1  1  1  1  1  1  1  1  1  1  1  1  1  1 -1
  13   1  1  1  1  1  1  1  1  1  1  1  1  1  1  1  1  1  1  1  1  1  1  1  1  1  1  1  1  1  1  1  1  1  1  1  1  1  1  1 -1
  14   1  1  1  1  1  1  1  1  1  1  1  1  1  1  1  1  1  1  1  1  1  1  1  1  1  1  1  1  1  1  1  1  1  1  1  1  1  1  1 -1
  15   1  1  1  1  1  1  1  1  1  1  1  1  1  1  1  1  1  1  1  1  1  1  1  1  1  1  1  1  1  1  1  1  1  1  1  1  1  1  1 -1
  16   1  1  1  1  1  1  1  1  1  1  1  1  1  1  1  1  1  1  1  1  1  1  1  1  1  1  1  1  1  1  1  1  1  1  1  1  1  1  1 -1
  17   1  1  1  1  1  1  1  1  1  1  1  1  1  1  1  1  1  1  1  1  1  1  1  1  1  1  1  1  1  1  1  1  1  1  1  1  1  1  1 -1
  18   1  1  1  1  1  1  1  1  1  1  1  1  1  1  1  1  1  1  1  1  1  1  1  1  1  1  1  1  1  1  1  1  1  1  1  1  1  1  1 -1
  19   1  1  1  1  1  1  1  1  1  1  1  1  1  1  1  1  1  1  1  1  1  1  1  1  1  1  1  1  1  1  1  1  1  1  1  1  1  1  1 -1
  20   1  1  1  1  1  1  1  1  1  1  1  1  1  1  1  1  1  1  1  1  1  1  1  1  1  1  1  1  1  1  1  1  1  1  1  1  1  1  1 -1
  21   1  1  1  1  1  1  1  1  1  1  1  1  1  1  1  1  1  1  1  1  1  1  1  1  1  1  1  1  1  1  1  1  1  1  1  1  1  1  1 -1
  22   1  1  1  1  1  1  1  1  1  1  1  1  1  1  1  1  1  1  1  1  1  1  1  1  1  1  1  1  1  1  1  1  1  1  1  1  1  1  1 -1
  23   1  1  1  1  1  1  1  1  1  1  1  1  1  1  1  1  1  1  1  1  1  1  1  1  1  1  1  1  1  1  1  1  1  1  1  1  1  1  1 -1
  24   1  1  1  1  1  1  1  1  1  1  1  1  1  1  1  1  1  1  1  1  1  1  1  1  1  1  1  1  1  1  1  1  1  1  1  1  1  1  1 -1
  25   1  1  1  1  1  1  1  1  1  1  1  1  1  1  1  1  1  1  1  1  1  1  1  1  1  1  1  1  1  1  1  1  1  1  1  1  1  1  1 -1
  26   1  1  1  1  1  1  1  1  1  1  1  1  1  1  1  1  1  1  1  1  1  1  1  1  1  1  1  1  1  1  1  1  1  1  1  1  1  1  1 -1
  27   1  1  1  1  1  1  1  1  1  1  1  1  1  1  1  1  1  1  1  1  1  1  1  1  1  1  1  1  1  1  1  1  1  1  1  1  1  1  1 -1
  28   1  1  1  1  1  1  1  1  1  1  1  1  1  1  1  1  1  1  1  1  1  1  1  1  1  1  1  1  1  1  1  1  1  1  1  1  1  1  1 -1
  29   1  1  1  1  1  1  1  1  1  1  1  1  1  1  1  1  1  1  1  1  1  1  1  1  1  1  1  1  1  1  1  1  1  1  1  1  1  1  1 -1
  30   1  1  1  1  1  1  1  1  1  1  1  1  1  1  1  1  1  1  1  1  1  1  1  1  1  1  1  1  1  1  1  1  1  1  1  1  1  1  1 -1
  31   1  1  1  1  1  1  1  1  1  1  1  1  1  1  1  1  1  1  1  1  1  1  1  1  1  1  1  1  1  1  1  1  1  1  1  1  1  1  1 -1
  32   1  1  1  1  1  1  1  1  1  1  1  1  1  1  1  1  1  1  1  1  1  1  1  1  1  1  1  1  1  1  1  1  1  1  1  1  1  1  1 -1
  33   1  1  1  1  1  1  1  1  1  1  1  1  1  1  1  1  1  1  1  1  1  1  1  1  1  1  1  1  1  1  1  1  1  1  1  1  1  1  1 -1
  34   1  1  1  1  1  1  1  1  1  1  1  1  1  1  1  1  1  1  1  1  1  1  1  1  1  1  1  1  1  1  1  1  1  1  1  1  1  1  1 -1
  35   1  1  1  1  1  1  1  1  1  1  1  1  1  1  1  1  1  1  1  1  1  1  1  1  1  1  1  1  1  1  1  1  1  1  1  1  1  1  1 -1
  36   1  1  1  1  1  1  1  1  1  1  1  1  1  1  1  1  1  1  1  1  1  1  1  1  1  1  1  1  1  1  1  1  1  1  1  1  1  1  1 -1
  37   1  1  1  1  1  1  1  1  1  1  1  1  1  1  1  1  1  1  1  1  1  1  1  1  1  1  1  1  1  1  1  1  1  1  1  1  1  1  1 -1
  38   1  1  1  1  1  1  1  1  1  1  1  1  1  1  1  1  1  1  1  1  1  1  1  1  1  1  1  1  1  1  1  1  1  1  1  1  1  1  1 -1
  39   1  1  1  1  1  1  1  1  1  1  1  1  1  1  1  1  1  1  1  1  1  1  1  1  1  1  1  1  1  1  1  1  1  1  1  1  1  1  1 -1
  40  -1 -1 -1 -1 -1 -1 -1 -1 -1 -1 -1 -1 -1 -1 -1 -1 -1 -1 -1 -1 -1 -1 -1 -1 -1 -1 -1 -1 -1 -1 -1 -1 -1 -1 -1 -1 -1 -1 -1 -1



                     BOUNDARY ARRAY FOR LAYER  12
 READING ON UNIT    2 WITH FORMAT: (20I4)              

       1  2  3  4  5  6  7  8  9 10 11 12 13 14 15 16 17 18 19 20 21 22 23 24 25 26 27 28 29 30 31 32 33 34 35 36 37 38 39 40
 ............................................................................................................................
   1   1  1  1  1  1  1  1  1  1  1  1  1  1  1  1  1  1  1  1  1  1  1  1  1  1  1  1  1  1  1  1  1  1  1  1  1  1  1  1 -1
   2   1  1  1  1  1  1  1  1  1  1  1  1  1  1  1  1  1  1  1  1  1  1  1  1  1  1  1  1  1  1  1  1  1  1  1  1  1  1  1 -1
   3   1  1  1  1  1  1  1  1  1  1  1  1  1  1  1  1  1  1  1  1  1  1  1  1  1  1  1  1  1  1  1  1  1  1  1  1  1  1  1 -1
   4   1  1  1  1  1  1  1  1  1  1  1  1  1  1  1  1  1  1  1  1  1  1  1  1  1  1  1  1  1  1  1  1  1  1  1  1  1  1  1 -1
   5   1  1  1  1  1  1  1  1  1  1  1  1  1  1  1  1  1  1  1  1  1  1  1  1  1  1  1  1  1  1  1  1  1  1  1  1  1  1  1 -1
   6   1  1  1  1  1  1  1  1  1  1  1  1  1  1  1  1  1  1  1  1  1  1  1  1  1  1  1  1  1  1  1  1  1  1  1  1  1  1  1 -1
   7   1  1  1  1  1  1  1  1  1  1  1  1  1  1  1  1  1  1  1  1  1  1  1  1  1  1  1  1  1  1  1  1  1  1  1  1  1  1  1 -1
   8   1  1  1  1  1  1  1  1  1  1  1  1  1  1  1  1  1  1  1  1  1  1  1  1  1  1  1  1  1  1  1  1  1  1  1  1  1  1  1 -1
   9   1  1  1  1  1  1  1  1  1  1  1  1  1  1  1  1  1  1  1  1  1  1  1  1  1  1  1  1  1  1  1  1  1  1  1  1  1  1  1 -1
  10   1  1  1  1  1  1  1  1  1  1  1  1  1  1  1  1  1  1  1  1  1  1  1  1  1  1  1  1  1  1  1  1  1  1  1  1  1  1  1 -1
  11   1  1  1  1  1  1  1  1  1  1  1  1  1  1  1  1  1  1  1  1  1  1  1  1  1  1  1  1  1  1  1  1  1  1  1  1  1  1  1 -1
  12   1  1  1  1  1  1  1  1  1  1  1  1  1  1  1  1  1  1  1  1  1  1  1  1  1  1  1  1  1  1  1  1  1  1  1  1  1  1  1 -1
  13   1  1  1  1  1  1  1  1  1  1  1  1  1  1  1  1  1  1  1  1  1  1  1  1  1  1  1  1  1  1  1  1  1  1  1  1  1  1  1 -1
  14   1  1  1  1  1  1  1  1  1  1  1  1  1  1  1  1  1  1  1  1  1  1  1  1  1  1  1  1  1  1  1  1  1  1  1  1  1  1  1 -1
  15   1  1  1  1  1  1  1  1  1  1  1  1  1  1  1  1  1  1  1  1  1  1  1  1  1  1  1  1  1  1  1  1  1  1  1  1  1  1  1 -1
  16   1  1  1  1  1  1  1  1  1  1  1  1  1  1  1  1  1  1  1  1  1  1  1  1  1  1  1  1  1  1  1  1  1  1  1  1  1  1  1 -1
  17   1  1  1  1  1  1  1  1  1  1  1  1  1  1  1  1  1  1  1  1  1  1  1  1  1  1  1  1  1  1  1  1  1  1  1  1  1  1  1 -1
  18   1  1  1  1  1  1  1  1  1  1  1  1  1  1  1  1  1  1  1  1  1  1  1  1  1  1  1  1  1  1  1  1  1  1  1  1  1  1  1 -1
  19   1  1  1  1  1  1  1  1  1  1  1  1  1  1  1  1  1  1  1  1  1  1  1  1  1  1  1  1  1  1  1  1  1  1  1  1  1  1  1 -1
  20   1  1  1  1  1  1  1  1  1  1  1  1  1  1  1  1  1  1  1  1  1  1  1  1  1  1  1  1  1  1  1  1  1  1  1  1  1  1  1 -1
  21   1  1  1  1  1  1  1  1  1  1  1  1  1  1  1  1  1  1  1  1  1  1  1  1  1  1  1  1  1  1  1  1  1  1  1  1  1  1  1 -1
  22   1  1  1  1  1  1  1  1  1  1  1  1  1  1  1  1  1  1  1  1  1  1  1  1  1  1  1  1  1  1  1  1  1  1  1  1  1  1  1 -1
  23   1  1  1  1  1  1  1  1  1  1  1  1  1  1  1  1  1  1  1  1  1  1  1  1  1  1  1  1  1  1  1  1  1  1  1  1  1  1  1 -1
  24   1  1  1  1  1  1  1  1  1  1  1  1  1  1  1  1  1  1  1  1  1  1  1  1  1  1  1  1  1  1  1  1  1  1  1  1  1  1  1 -1
  25   1  1  1  1  1  1  1  1  1  1  1  1  1  1  1  1  1  1  1  1  1  1  1  1  1  1  1  1  1  1  1  1  1  1  1  1  1  1  1 -1
  26   1  1  1  1  1  1  1  1  1  1  1  1  1  1  1  1  1  1  1  1  1  1  1  1  1  1  1  1  1  1  1  1  1  1  1  1  1  1  1 -1
  27   1  1  1  1  1  1  1  1  1  1  1  1  1  1  1  1  1  1  1  1  1  1  1  1  1  1  1  1  1  1  1  1  1  1  1  1  1  1  1 -1
  28   1  1  1  1  1  1  1  1  1  1  1  1  1  1  1  1  1  1  1  1  1  1  1  1  1  1  1  1  1  1  1  1  1  1  1  1  1  1  1 -1
  29   1  1  1  1  1  1  1  1  1  1  1  1  1  1  1  1  1  1  1  1  1  1  1  1  1  1  1  1  1  1  1  1  1  1  1  1  1  1  1 -1
  30   1  1  1  1  1  1  1  1  1  1  1  1  1  1  1  1  1  1  1  1  1  1  1  1  1  1  1  1  1  1  1  1  1  1  1  1  1  1  1 -1
  31   1  1  1  1  1  1  1  1  1  1  1  1  1  1  1  1  1  1  1  1  1  1  1  1  1  1  1  1  1  1  1  1  1  1  1  1  1  1  1 -1
  32   1  1  1  1  1  1  1  1  1  1  1  1  1  1  1  1  1  1  1  1  1  1  1  1  1  1  1  1  1  1  1  1  1  1  1  1  1  1  1 -1
  33   1  1  1  1  1  1  1  1  1  1  1  1  1  1  1  1  1  1  1  1  1  1  1  1  1  1  1  1  1  1  1  1  1  1  1  1  1  1  1 -1
  34   1  1  1  1  1  1  1  1  1  1  1  1  1  1  1  1  1  1  1  1  1  1  1  1  1  1  1  1  1  1  1  1  1  1  1  1  1  1  1 -1
  35   1  1  1  1  1  1  1  1  1  1  1  1  1  1  1  1  1  1  1  1  1  1  1  1  1  1  1  1  1  1  1  1  1  1  1  1  1  1  1 -1
  36   1  1  1  1  1  1  1  1  1  1  1  1  1  1  1  1  1  1  1  1  1  1  1  1  1  1  1  1  1  1  1  1  1  1  1  1  1  1  1 -1
  37   1  1  1  1  1  1  1  1  1  1  1  1  1  1  1  1  1  1  1  1  1  1  1  1  1  1  1  1  1  1  1  1  1  1  1  1  1  1  1 -1
  38   1  1  1  1  1  1  1  1  1  1  1  1  1  1  1  1  1  1  1  1  1  1  1  1  1  1  1  1  1  1  1  1  1  1  1  1  1  1  1 -1
  39   1  1  1  1  1  1  1  1  1  1  1  1  1  1  1  1  1  1  1  1  1  1  1  1  1  1  1  1  1  1  1  1  1  1  1  1  1  1  1 -1
  40  -1 -1 -1 -1 -1 -1 -1 -1 -1 -1 -1 -1 -1 -1 -1 -1 -1 -1 -1 -1 -1 -1 -1 -1 -1 -1 -1 -1 -1 -1 -1 -1 -1 -1 -1 -1 -1 -1 -1 -1



                     BOUNDARY ARRAY FOR LAYER  13
 READING ON UNIT    2 WITH FORMAT: (20I4)              

       1  2  3  4  5  6  7  8  9 10 11 12 13 14 15 16 17 18 19 20 21 22 23 24 25 26 27 28 29 30 31 32 33 34 35 36 37 38 39 40
 ............................................................................................................................
   1   1  1  1  1  1  1  1  1  1  1  1  1  1  1  1  1  1  1  1  1  1  1  1  1  1  1  1  1  1  1  1  1  1  1  1  1  1  1  1 -1
   2   1  1  1  1  1  1  1  1  1  1  1  1  1  1  1  1  1  1  1  1  1  1  1  1  1  1  1  1  1  1  1  1  1  1  1  1  1  1  1 -1
   3   1  1  1  1  1  1  1  1  1  1  1  1  1  1  1  1  1  1  1  1  1  1  1  1  1  1  1  1  1  1  1  1  1  1  1  1  1  1  1 -1
   4   1  1  1  1  1  1  1  1  1  1  1  1  1  1  1  1  1  1  1  1  1  1  1  1  1  1  1  1  1  1  1  1  1  1  1  1  1  1  1 -1
   5   1  1  1  1  1  1  1  1  1  1  1  1  1  1  1  1  1  1  1  1  1  1  1  1  1  1  1  1  1  1  1  1  1  1  1  1  1  1  1 -1
   6   1  1  1  1  1  1  1  1  1  1  1  1  1  1  1  1  1  1  1  1  1  1  1  1  1  1  1  1  1  1  1  1  1  1  1  1  1  1  1 -1
   7   1  1  1  1  1  1  1  1  1  1  1  1  1  1  1  1  1  1  1  1  1  1  1  1  1  1  1  1  1  1  1  1  1  1  1  1  1  1  1 -1
   8   1  1  1  1  1  1  1  1  1  1  1  1  1  1  1  1  1  1  1  1  1  1  1  1  1  1  1  1  1  1  1  1  1  1  1  1  1  1  1 -1
   9   1  1  1  1  1  1  1  1  1  1  1  1  1  1  1  1  1  1  1  1  1  1  1  1  1  1  1  1  1  1  1  1  1  1  1  1  1  1  1 -1
  10   1  1  1  1  1  1  1  1  1  1  1  1  1  1  1  1  1  1  1  1  1  1  1  1  1  1  1  1  1  1  1  1  1  1  1  1  1  1  1 -1
  11   1  1  1  1  1  1  1  1  1  1  1  1  1  1  1  1  1  1  1  1  1  1  1  1  1  1  1  1  1  1  1  1  1  1  1  1  1  1  1 -1
  12   1  1  1  1  1  1  1  1  1  1  1  1  1  1  1  1  1  1  1  1  1  1  1  1  1  1  1  1  1  1  1  1  1  1  1  1  1  1  1 -1
  13   1  1  1  1  1  1  1  1  1  1  1  1  1  1  1  1  1  1  1  1  1  1  1  1  1  1  1  1  1  1  1  1  1  1  1  1  1  1  1 -1
  14   1  1  1  1  1  1  1  1  1  1  1  1  1  1  1  1  1  1  1  1  1  1  1  1  1  1  1  1  1  1  1  1  1  1  1  1  1  1  1 -1
  15   1  1  1  1  1  1  1  1  1  1  1  1  1  1  1  1  1  1  1  1  1  1  1  1  1  1  1  1  1  1  1  1  1  1  1  1  1  1  1 -1
  16   1  1  1  1  1  1  1  1  1  1  1  1  1  1  1  1  1  1  1  1  1  1  1  1  1  1  1  1  1  1  1  1  1  1  1  1  1  1  1 -1
  17   1  1  1  1  1  1  1  1  1  1  1  1  1  1  1  1  1  1  1  1  1  1  1  1  1  1  1  1  1  1  1  1  1  1  1  1  1  1  1 -1
  18   1  1  1  1  1  1  1  1  1  1  1  1  1  1  1  1  1  1  1  1  1  1  1  1  1  1  1  1  1  1  1  1  1  1  1  1  1  1  1 -1
  19   1  1  1  1  1  1  1  1  1  1  1  1  1  1  1  1  1  1  1  1  1  1  1  1  1  1  1  1  1  1  1  1  1  1  1  1  1  1  1 -1
  20   1  1  1  1  1  1  1  1  1  1  1  1  1  1  1  1  1  1  1  1  1  1  1  1  1  1  1  1  1  1  1  1  1  1  1  1  1  1  1 -1
  21   1  1  1  1  1  1  1  1  1  1  1  1  1  1  1  1  1  1  1  1  1  1  1  1  1  1  1  1  1  1  1  1  1  1  1  1  1  1  1 -1
  22   1  1  1  1  1  1  1  1  1  1  1  1  1  1  1  1  1  1  1  1  1  1  1  1  1  1  1  1  1  1  1  1  1  1  1  1  1  1  1 -1
  23   1  1  1  1  1  1  1  1  1  1  1  1  1  1  1  1  1  1  1  1  1  1  1  1  1  1  1  1  1  1  1  1  1  1  1  1  1  1  1 -1
  24   1  1  1  1  1  1  1  1  1  1  1  1  1  1  1  1  1  1  1  1  1  1  1  1  1  1  1  1  1  1  1  1  1  1  1  1  1  1  1 -1
  25   1  1  1  1  1  1  1  1  1  1  1  1  1  1  1  1  1  1  1  1  1  1  1  1  1  1  1  1  1  1  1  1  1  1  1  1  1  1  1 -1
  26   1  1  1  1  1  1  1  1  1  1  1  1  1  1  1  1  1  1  1  1  1  1  1  1  1  1  1  1  1  1  1  1  1  1  1  1  1  1  1 -1
  27   1  1  1  1  1  1  1  1  1  1  1  1  1  1  1  1  1  1  1  1  1  1  1  1  1  1  1  1  1  1  1  1  1  1  1  1  1  1  1 -1
  28   1  1  1  1  1  1  1  1  1  1  1  1  1  1  1  1  1  1  1  1  1  1  1  1  1  1  1  1  1  1  1  1  1  1  1  1  1  1  1 -1
  29   1  1  1  1  1  1  1  1  1  1  1  1  1  1  1  1  1  1  1  1  1  1  1  1  1  1  1  1  1  1  1  1  1  1  1  1  1  1  1 -1
  30   1  1  1  1  1  1  1  1  1  1  1  1  1  1  1  1  1  1  1  1  1  1  1  1  1  1  1  1  1  1  1  1  1  1  1  1  1  1  1 -1
  31   1  1  1  1  1  1  1  1  1  1  1  1  1  1  1  1  1  1  1  1  1  1  1  1  1  1  1  1  1  1  1  1  1  1  1  1  1  1  1 -1
  32   1  1  1  1  1  1  1  1  1  1  1  1  1  1  1  1  1  1  1  1  1  1  1  1  1  1  1  1  1  1  1  1  1  1  1  1  1  1  1 -1
  33   1  1  1  1  1  1  1  1  1  1  1  1  1  1  1  1  1  1  1  1  1  1  1  1  1  1  1  1  1  1  1  1  1  1  1  1  1  1  1 -1
  34   1  1  1  1  1  1  1  1  1  1  1  1  1  1  1  1  1  1  1  1  1  1  1  1  1  1  1  1  1  1  1  1  1  1  1  1  1  1  1 -1
  35   1  1  1  1  1  1  1  1  1  1  1  1  1  1  1  1  1  1  1  1  1  1  1  1  1  1  1  1  1  1  1  1  1  1  1  1  1  1  1 -1
  36   1  1  1  1  1  1  1  1  1  1  1  1  1  1  1  1  1  1  1  1  1  1  1  1  1  1  1  1  1  1  1  1  1  1  1  1  1  1  1 -1
  37   1  1  1  1  1  1  1  1  1  1  1  1  1  1  1  1  1  1  1  1  1  1  1  1  1  1  1  1  1  1  1  1  1  1  1  1  1  1  1 -1
  38   1  1  1  1  1  1  1  1  1  1  1  1  1  1  1  1  1  1  1  1  1  1  1  1  1  1  1  1  1  1  1  1  1  1  1  1  1  1  1 -1
  39   1  1  1  1  1  1  1  1  1  1  1  1  1  1  1  1  1  1  1  1  1  1  1  1  1  1  1  1  1  1  1  1  1  1  1  1  1  1  1 -1
  40  -1 -1 -1 -1 -1 -1 -1 -1 -1 -1 -1 -1 -1 -1 -1 -1 -1 -1 -1 -1 -1 -1 -1 -1 -1 -1 -1 -1 -1 -1 -1 -1 -1 -1 -1 -1 -1 -1 -1 -1



                     BOUNDARY ARRAY FOR LAYER  14
 READING ON UNIT    2 WITH FORMAT: (20I4)              

       1  2  3  4  5  6  7  8  9 10 11 12 13 14 15 16 17 18 19 20 21 22 23 24 25 26 27 28 29 30 31 32 33 34 35 36 37 38 39 40
 ............................................................................................................................
   1   1  1  1  1  1  1  1  1  1  1  1  1  1  1  1  1  1  1  1  1  1  1  1  1  1  1  1  1  1  1  1  1  1  1  1  1  1  1  1 -1
   2   1  1  1  1  1  1  1  1  1  1  1  1  1  1  1  1  1  1  1  1  1  1  1  1  1  1  1  1  1  1  1  1  1  1  1  1  1  1  1 -1
   3   1  1  1  1  1  1  1  1  1  1  1  1  1  1  1  1  1  1  1  1  1  1  1  1  1  1  1  1  1  1  1  1  1  1  1  1  1  1  1 -1
   4   1  1  1  1  1  1  1  1  1  1  1  1  1  1  1  1  1  1  1  1  1  1  1  1  1  1  1  1  1  1  1  1  1  1  1  1  1  1  1 -1
   5   1  1  1  1  1  1  1  1  1  1  1  1  1  1  1  1  1  1  1  1  1  1  1  1  1  1  1  1  1  1  1  1  1  1  1  1  1  1  1 -1
   6   1  1  1  1  1  1  1  1  1  1  1  1  1  1  1  1  1  1  1  1  1  1  1  1  1  1  1  1  1  1  1  1  1  1  1  1  1  1  1 -1
   7   1  1  1  1  1  1  1  1  1  1  1  1  1  1  1  1  1  1  1  1  1  1  1  1  1  1  1  1  1  1  1  1  1  1  1  1  1  1  1 -1
   8   1  1  1  1  1  1  1  1  1  1  1  1  1  1  1  1  1  1  1  1  1  1  1  1  1  1  1  1  1  1  1  1  1  1  1  1  1  1  1 -1
   9   1  1  1  1  1  1  1  1  1  1  1  1  1  1  1  1  1  1  1  1  1  1  1  1  1  1  1  1  1  1  1  1  1  1  1  1  1  1  1 -1
  10   1  1  1  1  1  1  1  1  1  1  1  1  1  1  1  1  1  1  1  1  1  1  1  1  1  1  1  1  1  1  1  1  1  1  1  1  1  1  1 -1
  11   1  1  1  1  1  1  1  1  1  1  1  1  1  1  1  1  1  1  1  1  1  1  1  1  1  1  1  1  1  1  1  1  1  1  1  1  1  1  1 -1
  12   1  1  1  1  1  1  1  1  1  1  1  1  1  1  1  1  1  1  1  1  1  1  1  1  1  1  1  1  1  1  1  1  1  1  1  1  1  1  1 -1
  13   1  1  1  1  1  1  1  1  1  1  1  1  1  1  1  1  1  1  1  1  1  1  1  1  1  1  1  1  1  1  1  1  1  1  1  1  1  1  1 -1
  14   1  1  1  1  1  1  1  1  1  1  1  1  1  1  1  1  1  1  1  1  1  1  1  1  1  1  1  1  1  1  1  1  1  1  1  1  1  1  1 -1
  15   1  1  1  1  1  1  1  1  1  1  1  1  1  1  1  1  1  1  1  1  1  1  1  1  1  1  1  1  1  1  1  1  1  1  1  1  1  1  1 -1
  16   1  1  1  1  1  1  1  1  1  1  1  1  1  1  1  1  1  1  1  1  1  1  1  1  1  1  1  1  1  1  1  1  1  1  1  1  1  1  1 -1
  17   1  1  1  1  1  1  1  1  1  1  1  1  1  1  1  1  1  1  1  1  1  1  1  1  1  1  1  1  1  1  1  1  1  1  1  1  1  1  1 -1
  18   1  1  1  1  1  1  1  1  1  1  1  1  1  1  1  1  1  1  1  1  1  1  1  1  1  1  1  1  1  1  1  1  1  1  1  1  1  1  1 -1
  19   1  1  1  1  1  1  1  1  1  1  1  1  1  1  1  1  1  1  1  1  1  1  1  1  1  1  1  1  1  1  1  1  1  1  1  1  1  1  1 -1
  20   1  1  1  1  1  1  1  1  1  1  1  1  1  1  1  1  1  1  1  1  1  1  1  1  1  1  1  1  1  1  1  1  1  1  1  1  1  1  1 -1
  21   1  1  1  1  1  1  1  1  1  1  1  1  1  1  1  1  1  1  1  1  1  1  1  1  1  1  1  1  1  1  1  1  1  1  1  1  1  1  1 -1
  22   1  1  1  1  1  1  1  1  1  1  1  1  1  1  1  1  1  1  1  1  1  1  1  1  1  1  1  1  1  1  1  1  1  1  1  1  1  1  1 -1
  23   1  1  1  1  1  1  1  1  1  1  1  1  1  1  1  1  1  1  1  1  1  1  1  1  1  1  1  1  1  1  1  1  1  1  1  1  1  1  1 -1
  24   1  1  1  1  1  1  1  1  1  1  1  1  1  1  1  1  1  1  1  1  1  1  1  1  1  1  1  1  1  1  1  1  1  1  1  1  1  1  1 -1
  25   1  1  1  1  1  1  1  1  1  1  1  1  1  1  1  1  1  1  1  1  1  1  1  1  1  1  1  1  1  1  1  1  1  1  1  1  1  1  1 -1
  26   1  1  1  1  1  1  1  1  1  1  1  1  1  1  1  1  1  1  1  1  1  1  1  1  1  1  1  1  1  1  1  1  1  1  1  1  1  1  1 -1
  27   1  1  1  1  1  1  1  1  1  1  1  1  1  1  1  1  1  1  1  1  1  1  1  1  1  1  1  1  1  1  1  1  1  1  1  1  1  1  1 -1
  28   1  1  1  1  1  1  1  1  1  1  1  1  1  1  1  1  1  1  1  1  1  1  1  1  1  1  1  1  1  1  1  1  1  1  1  1  1  1  1 -1
  29   1  1  1  1  1  1  1  1  1  1  1  1  1  1  1  1  1  1  1  1  1  1  1  1  1  1  1  1  1  1  1  1  1  1  1  1  1  1  1 -1
  30   1  1  1  1  1  1  1  1  1  1  1  1  1  1  1  1  1  1  1  1  1  1  1  1  1  1  1  1  1  1  1  1  1  1  1  1  1  1  1 -1
  31   1  1  1  1  1  1  1  1  1  1  1  1  1  1  1  1  1  1  1  1  1  1  1  1  1  1  1  1  1  1  1  1  1  1  1  1  1  1  1 -1
  32   1  1  1  1  1  1  1  1  1  1  1  1  1  1  1  1  1  1  1  1  1  1  1  1  1  1  1  1  1  1  1  1  1  1  1  1  1  1  1 -1
  33   1  1  1  1  1  1  1  1  1  1  1  1  1  1  1  1  1  1  1  1  1  1  1  1  1  1  1  1  1  1  1  1  1  1  1  1  1  1  1 -1
  34   1  1  1  1  1  1  1  1  1  1  1  1  1  1  1  1  1  1  1  1  1  1  1  1  1  1  1  1  1  1  1  1  1  1  1  1  1  1  1 -1
  35   1  1  1  1  1  1  1  1  1  1  1  1  1  1  1  1  1  1  1  1  1  1  1  1  1  1  1  1  1  1  1  1  1  1  1  1  1  1  1 -1
  36   1  1  1  1  1  1  1  1  1  1  1  1  1  1  1  1  1  1  1  1  1  1  1  1  1  1  1  1  1  1  1  1  1  1  1  1  1  1  1 -1
  37   1  1  1  1  1  1  1  1  1  1  1  1  1  1  1  1  1  1  1  1  1  1  1  1  1  1  1  1  1  1  1  1  1  1  1  1  1  1  1 -1
  38   1  1  1  1  1  1  1  1  1  1  1  1  1  1  1  1  1  1  1  1  1  1  1  1  1  1  1  1  1  1  1  1  1  1  1  1  1  1  1 -1
  39   1  1  1  1  1  1  1  1  1  1  1  1  1  1  1  1  1  1  1  1  1  1  1  1  1  1  1  1  1  1  1  1  1  1  1  1  1  1  1 -1
  40  -1 -1 -1 -1 -1 -1 -1 -1 -1 -1 -1 -1 -1 -1 -1 -1 -1 -1 -1 -1 -1 -1 -1 -1 -1 -1 -1 -1 -1 -1 -1 -1 -1 -1 -1 -1 -1 -1 -1 -1

 AQUIFER HEAD WILL BE SET TO  -99.900     AT ALL NO-FLOW NODES (IBOUND=0).

             INITIAL HEAD =   25.0000     FOR LAYER   1

             INITIAL HEAD =   25.0000     FOR LAYER   2

             INITIAL HEAD =   25.0000     FOR LAYER   3

             INITIAL HEAD =   25.0000     FOR LAYER   4

             INITIAL HEAD =   25.0000     FOR LAYER   5

             INITIAL HEAD =   25.0000     FOR LAYER   6

             INITIAL HEAD =   25.0000     FOR LAYER   7

             INITIAL HEAD =   25.0000     FOR LAYER   8

             INITIAL HEAD =   25.0000     FOR LAYER   9

             INITIAL HEAD =   25.0000     FOR LAYER  10

             INITIAL HEAD =   25.0000     FOR LAYER  11

             INITIAL HEAD =   25.0000     FOR LAYER  12

             INITIAL HEAD =   25.0000     FOR LAYER  13

             INITIAL HEAD =   25.0000     FOR LAYER  14

 OUTPUT CONTROL IS SPECIFIED ONLY AT TIME STEPS FOR WHICH OUTPUT IS DESIRED
 HEADS WILL BE SAVED WITH FORMAT: (10F10.3)           
 SAVED HEADS WILL BE LABELED
 COMPACT CELL-BY-CELL BUDGET FILES WILL BE WRITTEN
 IBOUND WILL BE SAVED WITH FORMAT: (40I2)              
 HEAD PRINT FORMAT CODE IS  12    DRAWDOWN PRINT FORMAT CODE IS   9
 HEADS WILL BE SAVED ON UNIT   51    DRAWDOWNS WILL BE SAVED ON UNIT    0
 # MODFLOW-NWT data for Prob 2 from McDonald and others (1991)

 NWT1 -- Newton Solver, VERSION 1.1.4, 4/01/2018
         INPUT READ FROM UNIT 34

 SPECIFIED OPTION:
 SOLVER INPUT VALUES ARE SPECIFIED BY USER
 ***XMD linear solver will be used***
 
   CONVERGENCE CRITERION OF   0.100000E-03 FOR HEAD SOLUTION
   AND A TOLERANCE OF   0.100000E+01 FOR FLOW SOLUTION AND 
   A MAXIMUM OF   500 OUTER ITERATIONS. 


   D-B-D REDUCTION FACTOR OF    0.970000E+00 AND 
   A D-B-D INCREASE FACTOR OF    0.100000E-03 AND 
   A D-B-D RELAXATION OF    0.000000E+00 AND 
   A MOMENTUM FACTOR OF    0.100000E+00 .


   BACKTRACKING IS ACTIVE 
   THE MAXIMUM NUMBER OF BACKTRACKS IS    20 AND 
   THE BACKTRACKING TOLERANCE IS    0.150000E+01 AND
   THE BACKTRACKING REDUCTION FACTOR IS    0.700000E+00

 XMD -- LINEAR SOLUTION BY XMD PACKAGE VERSION 1.30
     BY MOTOMU IBARAKI, OHIO STATE UNIVERSITY, COLOMBUS, OH
                 INPUT READ FROM UNIT 34
 ACCELERATION METHOD                    (IACL) =         2
 NODE ORDERING FLAG                   (NORDER) =         0
 LEVEL OF FILL                         (LEVEL) =         3
 MAXIMUM NUMBER OF ORTHOGONALIZATIONS  (NORTH) =         5
 INDEX FOR USING REDUCED SYSTEM      (IREDSYS) =         1
 RESID. REDUCTION CONVERGE CRITERION  (RRCTOL) =  0.000000E+00
 INDEX FOR USING DROP TOLERANCE     (IDROPTOL) =         0
 DROP TOLERANCE VALUE                  (EPSRN) =  0.100000E-03
 CONVERGENCE CRITERIA OF           (HCLOSEXMD) =  0.100000E-02
 MAX. NUMBER OF LINEAR ITERATIONS  (MXITERXMD) =        50


 UPW1 -- UPSTREAM WEIGHTING FLOW PACKAGE, VERSION 1.1.4, 4/01/2018
         INPUT READ FROM UNIT 35

 # UPW data for Prob 2 from McDonald and others (1991)
 CELL-BY-CELL FLOWS WILL BE SAVED ON UNIT   32
 No named parameters

   LAYER FLAGS:
 LAYER       LAYTYP          LAYAVG    CHANI           LAYVKA           LAYWET
 ---------------------------------------------------------------------------
    1             1             1     1.000E+00             0             0
    2             1             1     1.000E+00             0             0
    3             1             1     1.000E+00             0             0
    4             1             1     1.000E+00             0             0
    5             1             1     1.000E+00             0             0
    6             1             1     1.000E+00             0             0
    7             1             1     1.000E+00             0             0
    8             1             1     1.000E+00             0             0
    9             1             1     1.000E+00             0             0
   10             0             1     1.000E+00             0             0
   11             0             1     1.000E+00             0             0
   12             0             1     1.000E+00             0             0
   13             0             1     1.000E+00             0             0
   14             0             1     1.000E+00             0             0

   INTERPRETATION OF LAYER FLAGS:
                        INTERBLOCK     HORIZONTAL    DATA IN
         LAYER TYPE   TRANSMISSIVITY   ANISOTROPY   ARRAY VKA   WETTABILITY
 LAYER   (LAYTYP)        (LAYAVG)      (CHANI)     (LAYVKA)       (LAYWET)
 ---------------------------------------------------------------------------
    1   CONVERTIBLE   LOGARITHMIC     1.000E+00    VERTICAL K  NON-WETTABLE
    2   CONVERTIBLE   LOGARITHMIC     1.000E+00    VERTICAL K  NON-WETTABLE
    3   CONVERTIBLE   LOGARITHMIC     1.000E+00    VERTICAL K  NON-WETTABLE
    4   CONVERTIBLE   LOGARITHMIC     1.000E+00    VERTICAL K  NON-WETTABLE
    5   CONVERTIBLE   LOGARITHMIC     1.000E+00    VERTICAL K  NON-WETTABLE
    6   CONVERTIBLE   LOGARITHMIC     1.000E+00    VERTICAL K  NON-WETTABLE
    7   CONVERTIBLE   LOGARITHMIC     1.000E+00    VERTICAL K  NON-WETTABLE
    8   CONVERTIBLE   LOGARITHMIC     1.000E+00    VERTICAL K  NON-WETTABLE
    9   CONVERTIBLE   LOGARITHMIC     1.000E+00    VERTICAL K  NON-WETTABLE
   10      CONFINED   LOGARITHMIC     1.000E+00    VERTICAL K  NON-WETTABLE
   11      CONFINED   LOGARITHMIC     1.000E+00    VERTICAL K  NON-WETTABLE
   12      CONFINED   LOGARITHMIC     1.000E+00    VERTICAL K  NON-WETTABLE
   13      CONFINED   LOGARITHMIC     1.000E+00    VERTICAL K  NON-WETTABLE
   14      CONFINED   LOGARITHMIC     1.000E+00    VERTICAL K  NON-WETTABLE

    HYD. COND. ALONG ROWS =   5.00000     FOR LAYER   1

      VERTICAL HYD. COND. =  0.250000     FOR LAYER   1

         SPECIFIC STORAGE =  2.000000E-04 FOR LAYER   1

           SPECIFIC YIELD =  0.200000     FOR LAYER   1

    HYD. COND. ALONG ROWS =   5.00000     FOR LAYER   2

      VERTICAL HYD. COND. =  0.250000     FOR LAYER   2

         SPECIFIC STORAGE =  2.000000E-04 FOR LAYER   2

           SPECIFIC YIELD =  0.200000     FOR LAYER   2

    HYD. COND. ALONG ROWS =   5.00000     FOR LAYER   3

      VERTICAL HYD. COND. =  0.250000     FOR LAYER   3

         SPECIFIC STORAGE =  2.000000E-04 FOR LAYER   3

           SPECIFIC YIELD =  0.200000     FOR LAYER   3

    HYD. COND. ALONG ROWS =   5.00000     FOR LAYER   4

      VERTICAL HYD. COND. =  0.250000     FOR LAYER   4

         SPECIFIC STORAGE =  2.000000E-04 FOR LAYER   4

           SPECIFIC YIELD =  0.200000     FOR LAYER   4

    HYD. COND. ALONG ROWS =   5.00000     FOR LAYER   5

      VERTICAL HYD. COND. =  0.250000     FOR LAYER   5

         SPECIFIC STORAGE =  2.000000E-04 FOR LAYER   5

           SPECIFIC YIELD =  0.200000     FOR LAYER   5

    HYD. COND. ALONG ROWS =   5.00000     FOR LAYER   6

      VERTICAL HYD. COND. =  0.250000     FOR LAYER   6

         SPECIFIC STORAGE =  2.000000E-04 FOR LAYER   6

           SPECIFIC YIELD =  0.200000     FOR LAYER   6

    HYD. COND. ALONG ROWS =   5.00000     FOR LAYER   7

      VERTICAL HYD. COND. =  0.250000     FOR LAYER   7

         SPECIFIC STORAGE =  2.000000E-04 FOR LAYER   7

           SPECIFIC YIELD =  0.200000     FOR LAYER   7

    HYD. COND. ALONG ROWS =   5.00000     FOR LAYER   8

      VERTICAL HYD. COND. =  0.250000     FOR LAYER   8

         SPECIFIC STORAGE =  2.000000E-04 FOR LAYER   8

           SPECIFIC YIELD =  0.200000     FOR LAYER   8

    HYD. COND. ALONG ROWS =   5.00000     FOR LAYER   9

      VERTICAL HYD. COND. =  0.250000     FOR LAYER   9

         SPECIFIC STORAGE =  2.000000E-04 FOR LAYER   9

           SPECIFIC YIELD =  0.200000     FOR LAYER   9

    HYD. COND. ALONG ROWS =   5.00000     FOR LAYER  10

      VERTICAL HYD. COND. =  0.250000     FOR LAYER  10

         SPECIFIC STORAGE =  2.000000E-04 FOR LAYER  10

    HYD. COND. ALONG ROWS =   5.00000     FOR LAYER  11

      VERTICAL HYD. COND. =  0.250000     FOR LAYER  11

         SPECIFIC STORAGE =  2.000000E-04 FOR LAYER  11

    HYD. COND. ALONG ROWS =   5.00000     FOR LAYER  12

      VERTICAL HYD. COND. =  0.250000     FOR LAYER  12

         SPECIFIC STORAGE =  2.000000E-04 FOR LAYER  12

    HYD. COND. ALONG ROWS =   5.00000     FOR LAYER  13

      VERTICAL HYD. COND. =  0.250000     FOR LAYER  13

         SPECIFIC STORAGE =  2.000000E-04 FOR LAYER  13

    HYD. COND. ALONG ROWS =   5.00000     FOR LAYER  14

      VERTICAL HYD. COND. =  0.250000     FOR LAYER  14

         SPECIFIC STORAGE =  2.000000E-04 FOR LAYER  14

 RCH -- RECHARGE PACKAGE, VERSION 7, 5/2/2005 INPUT READ FROM UNIT   18
 No named parameters
 OPTION 3 -- RECHARGE TO HIGHEST ACTIVE NODE IN EACH VERTICAL COLUMN
 CELL-BY-CELL FLOWS WILL BE SAVED ON UNIT   32


     0 Recharge parameters
1
                            STRESS PERIOD NO.    1, LENGTH =   190.0000    
                            -----------------------------------------------

                              NUMBER OF TIME STEPS =    10

                               MULTIPLIER FOR DELT =     1.000

                            INITIAL TIME STEP SIZE =   19.00000    



                           RECHARGE
 READING ON UNIT   18 WITH FORMAT: (10F10.0)           

         1     2     3     4     5     6     7     8     9    10    11    12    13    14    15    16    17    18    19    20
        21    22    23    24    25    26    27    28    29    30    31    32    33    34    35    36    37    38    39    40
 ...........................................................................................................................
   1   0.05  0.05  0.00  0.00  0.00  0.00  0.00  0.00  0.00  0.00  0.00  0.00  0.00  0.00  0.00  0.00  0.00  0.00  0.00  0.00
       0.00  0.00  0.00  0.00  0.00  0.00  0.00  0.00  0.00  0.00  0.00  0.00  0.00  0.00  0.00  0.00  0.00  0.00  0.00  0.00
   2   0.05  0.05  0.00  0.00  0.00  0.00  0.00  0.00  0.00  0.00  0.00  0.00  0.00  0.00  0.00  0.00  0.00  0.00  0.00  0.00
       0.00  0.00  0.00  0.00  0.00  0.00  0.00  0.00  0.00  0.00  0.00  0.00  0.00  0.00  0.00  0.00  0.00  0.00  0.00  0.00
   3   0.00  0.00  0.00  0.00  0.00  0.00  0.00  0.00  0.00  0.00  0.00  0.00  0.00  0.00  0.00  0.00  0.00  0.00  0.00  0.00
       0.00  0.00  0.00  0.00  0.00  0.00  0.00  0.00  0.00  0.00  0.00  0.00  0.00  0.00  0.00  0.00  0.00  0.00  0.00  0.00
   4   0.00  0.00  0.00  0.00  0.00  0.00  0.00  0.00  0.00  0.00  0.00  0.00  0.00  0.00  0.00  0.00  0.00  0.00  0.00  0.00
       0.00  0.00  0.00  0.00  0.00  0.00  0.00  0.00  0.00  0.00  0.00  0.00  0.00  0.00  0.00  0.00  0.00  0.00  0.00  0.00
   5   0.00  0.00  0.00  0.00  0.00  0.00  0.00  0.00  0.00  0.00  0.00  0.00  0.00  0.00  0.00  0.00  0.00  0.00  0.00  0.00
       0.00  0.00  0.00  0.00  0.00  0.00  0.00  0.00  0.00  0.00  0.00  0.00  0.00  0.00  0.00  0.00  0.00  0.00  0.00  0.00
   6   0.00  0.00  0.00  0.00  0.00  0.00  0.00  0.00  0.00  0.00  0.00  0.00  0.00  0.00  0.00  0.00  0.00  0.00  0.00  0.00
       0.00  0.00  0.00  0.00  0.00  0.00  0.00  0.00  0.00  0.00  0.00  0.00  0.00  0.00  0.00  0.00  0.00  0.00  0.00  0.00
   7   0.00  0.00  0.00  0.00  0.00  0.00  0.00  0.00  0.00  0.00  0.00  0.00  0.00  0.00  0.00  0.00  0.00  0.00  0.00  0.00
       0.00  0.00  0.00  0.00  0.00  0.00  0.00  0.00  0.00  0.00  0.00  0.00  0.00  0.00  0.00  0.00  0.00  0.00  0.00  0.00
   8   0.00  0.00  0.00  0.00  0.00  0.00  0.00  0.00  0.00  0.00  0.00  0.00  0.00  0.00  0.00  0.00  0.00  0.00  0.00  0.00
       0.00  0.00  0.00  0.00  0.00  0.00  0.00  0.00  0.00  0.00  0.00  0.00  0.00  0.00  0.00  0.00  0.00  0.00  0.00  0.00
   9   0.00  0.00  0.00  0.00  0.00  0.00  0.00  0.00  0.00  0.00  0.00  0.00  0.00  0.00  0.00  0.00  0.00  0.00  0.00  0.00
       0.00  0.00  0.00  0.00  0.00  0.00  0.00  0.00  0.00  0.00  0.00  0.00  0.00  0.00  0.00  0.00  0.00  0.00  0.00  0.00
  10   0.00  0.00  0.00  0.00  0.00  0.00  0.00  0.00  0.00  0.00  0.00  0.00  0.00  0.00  0.00  0.00  0.00  0.00  0.00  0.00
       0.00  0.00  0.00  0.00  0.00  0.00  0.00  0.00  0.00  0.00  0.00  0.00  0.00  0.00  0.00  0.00  0.00  0.00  0.00  0.00
  11   0.00  0.00  0.00  0.00  0.00  0.00  0.00  0.00  0.00  0.00  0.00  0.00  0.00  0.00  0.00  0.00  0.00  0.00  0.00  0.00
       0.00  0.00  0.00  0.00  0.00  0.00  0.00  0.00  0.00  0.00  0.00  0.00  0.00  0.00  0.00  0.00  0.00  0.00  0.00  0.00
  12   0.00  0.00  0.00  0.00  0.00  0.00  0.00  0.00  0.00  0.00  0.00  0.00  0.00  0.00  0.00  0.00  0.00  0.00  0.00  0.00
       0.00  0.00  0.00  0.00  0.00  0.00  0.00  0.00  0.00  0.00  0.00  0.00  0.00  0.00  0.00  0.00  0.00  0.00  0.00  0.00
  13   0.00  0.00  0.00  0.00  0.00  0.00  0.00  0.00  0.00  0.00  0.00  0.00  0.00  0.00  0.00  0.00  0.00  0.00  0.00  0.00
       0.00  0.00  0.00  0.00  0.00  0.00  0.00  0.00  0.00  0.00  0.00  0.00  0.00  0.00  0.00  0.00  0.00  0.00  0.00  0.00
  14   0.00  0.00  0.00  0.00  0.00  0.00  0.00  0.00  0.00  0.00  0.00  0.00  0.00  0.00  0.00  0.00  0.00  0.00  0.00  0.00
       0.00  0.00  0.00  0.00  0.00  0.00  0.00  0.00  0.00  0.00  0.00  0.00  0.00  0.00  0.00  0.00  0.00  0.00  0.00  0.00
  15   0.00  0.00  0.00  0.00  0.00  0.00  0.00  0.00  0.00  0.00  0.00  0.00  0.00  0.00  0.00  0.00  0.00  0.00  0.00  0.00
       0.00  0.00  0.00  0.00  0.00  0.00  0.00  0.00  0.00  0.00  0.00  0.00  0.00  0.00  0.00  0.00  0.00  0.00  0.00  0.00
  16   0.00  0.00  0.00  0.00  0.00  0.00  0.00  0.00  0.00  0.00  0.00  0.00  0.00  0.00  0.00  0.00  0.00  0.00  0.00  0.00
       0.00  0.00  0.00  0.00  0.00  0.00  0.00  0.00  0.00  0.00  0.00  0.00  0.00  0.00  0.00  0.00  0.00  0.00  0.00  0.00
  17   0.00  0.00  0.00  0.00  0.00  0.00  0.00  0.00  0.00  0.00  0.00  0.00  0.00  0.00  0.00  0.00  0.00  0.00  0.00  0.00
       0.00  0.00  0.00  0.00  0.00  0.00  0.00  0.00  0.00  0.00  0.00  0.00  0.00  0.00  0.00  0.00  0.00  0.00  0.00  0.00
  18   0.00  0.00  0.00  0.00  0.00  0.00  0.00  0.00  0.00  0.00  0.00  0.00  0.00  0.00  0.00  0.00  0.00  0.00  0.00  0.00
       0.00  0.00  0.00  0.00  0.00  0.00  0.00  0.00  0.00  0.00  0.00  0.00  0.00  0.00  0.00  0.00  0.00  0.00  0.00  0.00
  19   0.00  0.00  0.00  0.00  0.00  0.00  0.00  0.00  0.00  0.00  0.00  0.00  0.00  0.00  0.00  0.00  0.00  0.00  0.00  0.00
       0.00  0.00  0.00  0.00  0.00  0.00  0.00  0.00  0.00  0.00  0.00  0.00  0.00  0.00  0.00  0.00  0.00  0.00  0.00  0.00
  20   0.00  0.00  0.00  0.00  0.00  0.00  0.00  0.00  0.00  0.00  0.00  0.00  0.00  0.00  0.00  0.00  0.00  0.00  0.00  0.00
       0.00  0.00  0.00  0.00  0.00  0.00  0.00  0.00  0.00  0.00  0.00  0.00  0.00  0.00  0.00  0.00  0.00  0.00  0.00  0.00
  21   0.00  0.00  0.00  0.00  0.00  0.00  0.00  0.00  0.00  0.00  0.00  0.00  0.00  0.00  0.00  0.00  0.00  0.00  0.00  0.00
       0.00  0.00  0.00  0.00  0.00  0.00  0.00  0.00  0.00  0.00  0.00  0.00  0.00  0.00  0.00  0.00  0.00  0.00  0.00  0.00
  22   0.00  0.00  0.00  0.00  0.00  0.00  0.00  0.00  0.00  0.00  0.00  0.00  0.00  0.00  0.00  0.00  0.00  0.00  0.00  0.00
       0.00  0.00  0.00  0.00  0.00  0.00  0.00  0.00  0.00  0.00  0.00  0.00  0.00  0.00  0.00  0.00  0.00  0.00  0.00  0.00
  23   0.00  0.00  0.00  0.00  0.00  0.00  0.00  0.00  0.00  0.00  0.00  0.00  0.00  0.00  0.00  0.00  0.00  0.00  0.00  0.00
       0.00  0.00  0.00  0.00  0.00  0.00  0.00  0.00  0.00  0.00  0.00  0.00  0.00  0.00  0.00  0.00  0.00  0.00  0.00  0.00
  24   0.00  0.00  0.00  0.00  0.00  0.00  0.00  0.00  0.00  0.00  0.00  0.00  0.00  0.00  0.00  0.00  0.00  0.00  0.00  0.00
       0.00  0.00  0.00  0.00  0.00  0.00  0.00  0.00  0.00  0.00  0.00  0.00  0.00  0.00  0.00  0.00  0.00  0.00  0.00  0.00
  25   0.00  0.00  0.00  0.00  0.00  0.00  0.00  0.00  0.00  0.00  0.00  0.00  0.00  0.00  0.00  0.00  0.00  0.00  0.00  0.00
       0.00  0.00  0.00  0.00  0.00  0.00  0.00  0.00  0.00  0.00  0.00  0.00  0.00  0.00  0.00  0.00  0.00  0.00  0.00  0.00
  26   0.00  0.00  0.00  0.00  0.00  0.00  0.00  0.00  0.00  0.00  0.00  0.00  0.00  0.00  0.00  0.00  0.00  0.00  0.00  0.00
       0.00  0.00  0.00  0.00  0.00  0.00  0.00  0.00  0.00  0.00  0.00  0.00  0.00  0.00  0.00  0.00  0.00  0.00  0.00  0.00
  27   0.00  0.00  0.00  0.00  0.00  0.00  0.00  0.00  0.00  0.00  0.00  0.00  0.00  0.00  0.00  0.00  0.00  0.00  0.00  0.00
       0.00  0.00  0.00  0.00  0.00  0.00  0.00  0.00  0.00  0.00  0.00  0.00  0.00  0.00  0.00  0.00  0.00  0.00  0.00  0.00
  28   0.00  0.00  0.00  0.00  0.00  0.00  0.00  0.00  0.00  0.00  0.00  0.00  0.00  0.00  0.00  0.00  0.00  0.00  0.00  0.00
       0.00  0.00  0.00  0.00  0.00  0.00  0.00  0.00  0.00  0.00  0.00  0.00  0.00  0.00  0.00  0.00  0.00  0.00  0.00  0.00
  29   0.00  0.00  0.00  0.00  0.00  0.00  0.00  0.00  0.00  0.00  0.00  0.00  0.00  0.00  0.00  0.00  0.00  0.00  0.00  0.00
       0.00  0.00  0.00  0.00  0.00  0.00  0.00  0.00  0.00  0.00  0.00  0.00  0.00  0.00  0.00  0.00  0.00  0.00  0.00  0.00
  30   0.00  0.00  0.00  0.00  0.00  0.00  0.00  0.00  0.00  0.00  0.00  0.00  0.00  0.00  0.00  0.00  0.00  0.00  0.00  0.00
       0.00  0.00  0.00  0.00  0.00  0.00  0.00  0.00  0.00  0.00  0.00  0.00  0.00  0.00  0.00  0.00  0.00  0.00  0.00  0.00
  31   0.00  0.00  0.00  0.00  0.00  0.00  0.00  0.00  0.00  0.00  0.00  0.00  0.00  0.00  0.00  0.00  0.00  0.00  0.00  0.00
       0.00  0.00  0.00  0.00  0.00  0.00  0.00  0.00  0.00  0.00  0.00  0.00  0.00  0.00  0.00  0.00  0.00  0.00  0.00  0.00
  32   0.00  0.00  0.00  0.00  0.00  0.00  0.00  0.00  0.00  0.00  0.00  0.00  0.00  0.00  0.00  0.00  0.00  0.00  0.00  0.00
       0.00  0.00  0.00  0.00  0.00  0.00  0.00  0.00  0.00  0.00  0.00  0.00  0.00  0.00  0.00  0.00  0.00  0.00  0.00  0.00
  33   0.00  0.00  0.00  0.00  0.00  0.00  0.00  0.00  0.00  0.00  0.00  0.00  0.00  0.00  0.00  0.00  0.00  0.00  0.00  0.00
       0.00  0.00  0.00  0.00  0.00  0.00  0.00  0.00  0.00  0.00  0.00  0.00  0.00  0.00  0.00  0.00  0.00  0.00  0.00  0.00
  34   0.00  0.00  0.00  0.00  0.00  0.00  0.00  0.00  0.00  0.00  0.00  0.00  0.00  0.00  0.00  0.00  0.00  0.00  0.00  0.00
       0.00  0.00  0.00  0.00  0.00  0.00  0.00  0.00  0.00  0.00  0.00  0.00  0.00  0.00  0.00  0.00  0.00  0.00  0.00  0.00
  35   0.00  0.00  0.00  0.00  0.00  0.00  0.00  0.00  0.00  0.00  0.00  0.00  0.00  0.00  0.00  0.00  0.00  0.00  0.00  0.00
       0.00  0.00  0.00  0.00  0.00  0.00  0.00  0.00  0.00  0.00  0.00  0.00  0.00  0.00  0.00  0.00  0.00  0.00  0.00  0.00
  36   0.00  0.00  0.00  0.00  0.00  0.00  0.00  0.00  0.00  0.00  0.00  0.00  0.00  0.00  0.00  0.00  0.00  0.00  0.00  0.00
       0.00  0.00  0.00  0.00  0.00  0.00  0.00  0.00  0.00  0.00  0.00  0.00  0.00  0.00  0.00  0.00  0.00  0.00  0.00  0.00
  37   0.00  0.00  0.00  0.00  0.00  0.00  0.00  0.00  0.00  0.00  0.00  0.00  0.00  0.00  0.00  0.00  0.00  0.00  0.00  0.00
       0.00  0.00  0.00  0.00  0.00  0.00  0.00  0.00  0.00  0.00  0.00  0.00  0.00  0.00  0.00  0.00  0.00  0.00  0.00  0.00
  38   0.00  0.00  0.00  0.00  0.00  0.00  0.00  0.00  0.00  0.00  0.00  0.00  0.00  0.00  0.00  0.00  0.00  0.00  0.00  0.00
       0.00  0.00  0.00  0.00  0.00  0.00  0.00  0.00  0.00  0.00  0.00  0.00  0.00  0.00  0.00  0.00  0.00  0.00  0.00  0.00
  39   0.00  0.00  0.00  0.00  0.00  0.00  0.00  0.00  0.00  0.00  0.00  0.00  0.00  0.00  0.00  0.00  0.00  0.00  0.00  0.00
       0.00  0.00  0.00  0.00  0.00  0.00  0.00  0.00  0.00  0.00  0.00  0.00  0.00  0.00  0.00  0.00  0.00  0.00  0.00  0.00
  40   0.00  0.00  0.00  0.00  0.00  0.00  0.00  0.00  0.00  0.00  0.00  0.00  0.00  0.00  0.00  0.00  0.00  0.00  0.00  0.00
       0.00  0.00  0.00  0.00  0.00  0.00  0.00  0.00  0.00  0.00  0.00  0.00  0.00  0.00  0.00  0.00  0.00  0.00  0.00  0.00
 
 SOLVING FOR HEAD 
                                                   Max.-Head-Change                        Max.-Flux-Residual
  Residual-Control   Outer-Iter.   Inner-Iter.     Column Row Layer    Max.-Head-Change    Column Row Layer    Max.-Flux-Residual            L2-New               L2-Old           Solver-Max-Delh
          0                 1          10             1    1     1       0.3884072921E+02       2    1    1       0.7812500000E+03      0.1562500000E+04      0.0000000000E+00      0.3884072921E+02
          1                 1           0             1    1     1       0.2718850998E+02       2    2    5      -0.1325220423E+04      0.9423669599E+04      0.1562500000E+04      0.3884072921E+02
          2                 1           0             1    1     1       0.1903195666E+02       2    2    7      -0.1096222499E+04      0.7171312467E+04      0.9423669599E+04      0.3884072921E+02
          3                 1           0             1    1     1       0.1332236944E+02       2    2    8      -0.9867228030E+03      0.5514547904E+04      0.7171312467E+04      0.3884072921E+02
          4                 1           0             1    1     1       0.9325658448E+01       2    2    9      -0.9182784804E+03      0.4281976652E+04      0.5514547904E+04      0.3884072921E+02
          5                 1           0             1    1     1       0.6527960802E+01       2    2    9      -0.8895054615E+03      0.3281516079E+04      0.4281976652E+04      0.3884072921E+02
          6                 1           0             1    1     1       0.4569572484E+01       1    1    9      -0.8295406530E+03      0.2621440304E+04      0.3281516079E+04      0.3884072921E+02
          0                 2           2             1    1     1       0.8944675035E+01       1    1    1       0.6802205590E+03      0.2098839356E+04      0.2621440304E+04      0.8944675035E+01
          0                 3           4             1    1     1      -0.8621853507E+00       1    1    1      -0.6787106168E+02      0.1835400196E+03      0.2098839356E+04     -0.8621853507E+00
          0                 4           2             4    4     9      -0.1297324209E+00       4    4    9      -0.3188994273E+02      0.1398493191E+03      0.1835400196E+03     -0.1297324209E+00
                                                   Max.-Head-Change                        Max.-Flux-Residual
  Residual-Control   Outer-Iter.   Inner-Iter.     Column Row Layer    Max.-Head-Change    Column Row Layer    Max.-Flux-Residual            L2-New               L2-Old           Solver-Max-Delh
          0                 5           2             1    1     1      -0.2148127219E-02       2    2    9       0.5482110254E+00      0.1805244776E+01      0.1398493191E+03     -0.2148127219E-02
          0                 6           2             3   10     9      -0.1120225999E-02       2   10    9      -0.2890290635E+00      0.1668173381E+01      0.1805244776E+01     -0.1120225999E-02
          0                 7           1             3   10     1      -0.4770779253E-04       2   10    9      -0.1193214687E-01      0.7166030683E-01      0.1668173381E+01     -0.4770779253E-04

    ------------------------------------------------
       NWT REQUIRED            7 OUTER ITERATIONS 
       AND A TOTAL OF         23 INNER ITERATIONS.
    ------------------------------------------------

 OUTPUT CONTROL FOR STRESS PERIOD    1   TIME STEP    1
    SAVE BUDGET
    PRINT HEAD FOR ALL LAYERS
    PRINT BUDGET
    SAVE HEAD FOR ALL LAYERS
 UBDSV1 SAVING "         STORAGE" ON UNIT  32 AT TIME STEP 1, STRESS PERIOD 1
 UBDSV2 SAVING "   CONSTANT HEAD" ON UNIT  32 AT TIME STEP 1, STRESS PERIOD 1
 UBDSV1 SAVING "FLOW RIGHT FACE " ON UNIT  32 AT TIME STEP 1, STRESS PERIOD 1
 UBDSV1 SAVING "FLOW FRONT FACE " ON UNIT  32 AT TIME STEP 1, STRESS PERIOD 1
 UBDSV1 SAVING "FLOW LOWER FACE " ON UNIT  32 AT TIME STEP 1, STRESS PERIOD 1
 UBDSV3 SAVING "        RECHARGE" ON UNIT  32 AT TIME STEP 1, STRESS PERIOD 1
1
              HEAD IN LAYER 1 AT END OF TIME STEP 1 IN STRESS PERIOD 1
  ---------------------------------------------------------------------------

            1           2           3           4           5           6           7           8           9          10
           11          12          13          14          15          16          17          18          19          20
           21          22          23          24          25          26          27          28          29          30
           31          32          33          34          35          36          37          38          39          40
 ........................................................................................................................
   1   -99.90      -99.90      -99.90      -99.90      -99.90      -99.90      -99.90      -99.90      -99.90      -99.90    
       -99.90      -99.90      -99.90      -99.90      -99.90      -99.90      -99.90      -99.90      -99.90      -99.90    
       -99.90      -99.90      -99.90      -99.90      -99.90      -99.90      -99.90      -99.90      -99.90      -99.90    
       -99.90      -99.90      -99.90      -99.90      -99.90      -99.90      -99.90      -99.90      -99.90      -99.90    
   2   -99.90      -99.90      -99.90      -99.90      -99.90      -99.90      -99.90      -99.90      -99.90      -99.90    
       -99.90      -99.90      -99.90      -99.90      -99.90      -99.90      -99.90      -99.90      -99.90      -99.90    
       -99.90      -99.90      -99.90      -99.90      -99.90      -99.90      -99.90      -99.90      -99.90      -99.90    
       -99.90      -99.90      -99.90      -99.90      -99.90      -99.90      -99.90      -99.90      -99.90      -99.90    
   3   -99.90      -99.90      -99.90      -99.90      -99.90      -99.90      -99.90      -99.90      -99.90      -99.90    
       -99.90      -99.90      -99.90      -99.90      -99.90      -99.90      -99.90      -99.90      -99.90      -99.90    
       -99.90      -99.90      -99.90      -99.90      -99.90      -99.90      -99.90      -99.90      -99.90      -99.90    
       -99.90      -99.90      -99.90      -99.90      -99.90      -99.90      -99.90      -99.90      -99.90      -99.90    
   4   -99.90      -99.90      -99.90      -99.90      -99.90      -99.90      -99.90      -99.90      -99.90      -99.90    
       -99.90      -99.90      -99.90      -99.90      -99.90      -99.90      -99.90      -99.90      -99.90      -99.90    
       -99.90      -99.90      -99.90      -99.90      -99.90      -99.90      -99.90      -99.90      -99.90      -99.90    
       -99.90      -99.90      -99.90      -99.90      -99.90      -99.90      -99.90      -99.90      -99.90      -99.90    
   5   -99.90      -99.90      -99.90      -99.90      -99.90      -99.90      -99.90      -99.90      -99.90      -99.90    
       -99.90      -99.90      -99.90      -99.90      -99.90      -99.90      -99.90      -99.90      -99.90      -99.90    
       -99.90      -99.90      -99.90      -99.90      -99.90      -99.90      -99.90      -99.90      -99.90      -99.90    
       -99.90      -99.90      -99.90      -99.90      -99.90      -99.90      -99.90      -99.90      -99.90      -99.90    
   6   -99.90      -99.90      -99.90      -99.90      -99.90      -99.90      -99.90      -99.90      -99.90      -99.90    
       -99.90      -99.90      -99.90      -99.90      -99.90      -99.90      -99.90      -99.90      -99.90      -99.90    
       -99.90      -99.90      -99.90      -99.90      -99.90      -99.90      -99.90      -99.90      -99.90      -99.90    
       -99.90      -99.90      -99.90      -99.90      -99.90      -99.90      -99.90      -99.90      -99.90      -99.90    
   7   -99.90      -99.90      -99.90      -99.90      -99.90      -99.90      -99.90      -99.90      -99.90      -99.90    
       -99.90      -99.90      -99.90      -99.90      -99.90      -99.90      -99.90      -99.90      -99.90      -99.90    
       -99.90      -99.90      -99.90      -99.90      -99.90      -99.90      -99.90      -99.90      -99.90      -99.90    
       -99.90      -99.90      -99.90      -99.90      -99.90      -99.90      -99.90      -99.90      -99.90      -99.90    
   8   -99.90      -99.90      -99.90      -99.90      -99.90      -99.90      -99.90      -99.90      -99.90      -99.90    
       -99.90      -99.90      -99.90      -99.90      -99.90      -99.90      -99.90      -99.90      -99.90      -99.90    
       -99.90      -99.90      -99.90      -99.90      -99.90      -99.90      -99.90      -99.90      -99.90      -99.90    
       -99.90      -99.90      -99.90      -99.90      -99.90      -99.90      -99.90      -99.90      -99.90      -99.90    
   9   -99.90      -99.90      -99.90      -99.90      -99.90      -99.90      -99.90      -99.90      -99.90      -99.90    
       -99.90      -99.90      -99.90      -99.90      -99.90      -99.90      -99.90      -99.90      -99.90      -99.90    
       -99.90      -99.90      -99.90      -99.90      -99.90      -99.90      -99.90      -99.90      -99.90      -99.90    
       -99.90      -99.90      -99.90      -99.90      -99.90      -99.90      -99.90      -99.90      -99.90      -99.90    
  10   -99.90      -99.90      -99.90      -99.90      -99.90      -99.90      -99.90      -99.90      -99.90      -99.90    
       -99.90      -99.90      -99.90      -99.90      -99.90      -99.90      -99.90      -99.90      -99.90      -99.90    
       -99.90      -99.90      -99.90      -99.90      -99.90      -99.90      -99.90      -99.90      -99.90      -99.90    
       -99.90      -99.90      -99.90      -99.90      -99.90      -99.90      -99.90      -99.90      -99.90      -99.90    
  11   -99.90      -99.90      -99.90      -99.90      -99.90      -99.90      -99.90      -99.90      -99.90      -99.90    
       -99.90      -99.90      -99.90      -99.90      -99.90      -99.90      -99.90      -99.90      -99.90      -99.90    
       -99.90      -99.90      -99.90      -99.90      -99.90      -99.90      -99.90      -99.90      -99.90      -99.90    
       -99.90      -99.90      -99.90      -99.90      -99.90      -99.90      -99.90      -99.90      -99.90      -99.90    
  12   -99.90      -99.90      -99.90      -99.90      -99.90      -99.90      -99.90      -99.90      -99.90      -99.90    
       -99.90      -99.90      -99.90      -99.90      -99.90      -99.90      -99.90      -99.90      -99.90      -99.90    
       -99.90      -99.90      -99.90      -99.90      -99.90      -99.90      -99.90      -99.90      -99.90      -99.90    
       -99.90      -99.90      -99.90      -99.90      -99.90      -99.90      -99.90      -99.90      -99.90      -99.90    
  13   -99.90      -99.90      -99.90      -99.90      -99.90      -99.90      -99.90      -99.90      -99.90      -99.90    
       -99.90      -99.90      -99.90      -99.90      -99.90      -99.90      -99.90      -99.90      -99.90      -99.90    
       -99.90      -99.90      -99.90      -99.90      -99.90      -99.90      -99.90      -99.90      -99.90      -99.90    
       -99.90      -99.90      -99.90      -99.90      -99.90      -99.90      -99.90      -99.90      -99.90      -99.90    
  14   -99.90      -99.90      -99.90      -99.90      -99.90      -99.90      -99.90      -99.90      -99.90      -99.90    
       -99.90      -99.90      -99.90      -99.90      -99.90      -99.90      -99.90      -99.90      -99.90      -99.90    
       -99.90      -99.90      -99.90      -99.90      -99.90      -99.90      -99.90      -99.90      -99.90      -99.90    
       -99.90      -99.90      -99.90      -99.90      -99.90      -99.90      -99.90      -99.90      -99.90      -99.90    
  15   -99.90      -99.90      -99.90      -99.90      -99.90      -99.90      -99.90      -99.90      -99.90      -99.90    
       -99.90      -99.90      -99.90      -99.90      -99.90      -99.90      -99.90      -99.90      -99.90      -99.90    
       -99.90      -99.90      -99.90      -99.90      -99.90      -99.90      -99.90      -99.90      -99.90      -99.90    
       -99.90      -99.90      -99.90      -99.90      -99.90      -99.90      -99.90      -99.90      -99.90      -99.90    
  16   -99.90      -99.90      -99.90      -99.90      -99.90      -99.90      -99.90      -99.90      -99.90      -99.90    
       -99.90      -99.90      -99.90      -99.90      -99.90      -99.90      -99.90      -99.90      -99.90      -99.90    
       -99.90      -99.90      -99.90      -99.90      -99.90      -99.90      -99.90      -99.90      -99.90      -99.90    
       -99.90      -99.90      -99.90      -99.90      -99.90      -99.90      -99.90      -99.90      -99.90      -99.90    
  17   -99.90      -99.90      -99.90      -99.90      -99.90      -99.90      -99.90      -99.90      -99.90      -99.90    
       -99.90      -99.90      -99.90      -99.90      -99.90      -99.90      -99.90      -99.90      -99.90      -99.90    
       -99.90      -99.90      -99.90      -99.90      -99.90      -99.90      -99.90      -99.90      -99.90      -99.90    
       -99.90      -99.90      -99.90      -99.90      -99.90      -99.90      -99.90      -99.90      -99.90      -99.90    
  18   -99.90      -99.90      -99.90      -99.90      -99.90      -99.90      -99.90      -99.90      -99.90      -99.90    
       -99.90      -99.90      -99.90      -99.90      -99.90      -99.90      -99.90      -99.90      -99.90      -99.90    
       -99.90      -99.90      -99.90      -99.90      -99.90      -99.90      -99.90      -99.90      -99.90      -99.90    
       -99.90      -99.90      -99.90      -99.90      -99.90      -99.90      -99.90      -99.90      -99.90      -99.90    
  19   -99.90      -99.90      -99.90      -99.90      -99.90      -99.90      -99.90      -99.90      -99.90      -99.90    
       -99.90      -99.90      -99.90      -99.90      -99.90      -99.90      -99.90      -99.90      -99.90      -99.90    
       -99.90      -99.90      -99.90      -99.90      -99.90      -99.90      -99.90      -99.90      -99.90      -99.90    
       -99.90      -99.90      -99.90      -99.90      -99.90      -99.90      -99.90      -99.90      -99.90      -99.90    
  20   -99.90      -99.90      -99.90      -99.90      -99.90      -99.90      -99.90      -99.90      -99.90      -99.90    
       -99.90      -99.90      -99.90      -99.90      -99.90      -99.90      -99.90      -99.90      -99.90      -99.90    
       -99.90      -99.90      -99.90      -99.90      -99.90      -99.90      -99.90      -99.90      -99.90      -99.90    
       -99.90      -99.90      -99.90      -99.90      -99.90      -99.90      -99.90      -99.90      -99.90      -99.90    
  21   -99.90      -99.90      -99.90      -99.90      -99.90      -99.90      -99.90      -99.90      -99.90      -99.90    
       -99.90      -99.90      -99.90      -99.90      -99.90      -99.90      -99.90      -99.90      -99.90      -99.90    
       -99.90      -99.90      -99.90      -99.90      -99.90      -99.90      -99.90      -99.90      -99.90      -99.90    
       -99.90      -99.90      -99.90      -99.90      -99.90      -99.90      -99.90      -99.90      -99.90      -99.90    
  22   -99.90      -99.90      -99.90      -99.90      -99.90      -99.90      -99.90      -99.90      -99.90      -99.90    
       -99.90      -99.90      -99.90      -99.90      -99.90      -99.90      -99.90      -99.90      -99.90      -99.90    
       -99.90      -99.90      -99.90      -99.90      -99.90      -99.90      -99.90      -99.90      -99.90      -99.90    
       -99.90      -99.90      -99.90      -99.90      -99.90      -99.90      -99.90      -99.90      -99.90      -99.90    
  23   -99.90      -99.90      -99.90      -99.90      -99.90      -99.90      -99.90      -99.90      -99.90      -99.90    
       -99.90      -99.90      -99.90      -99.90      -99.90      -99.90      -99.90      -99.90      -99.90      -99.90    
       -99.90      -99.90      -99.90      -99.90      -99.90      -99.90      -99.90      -99.90      -99.90      -99.90    
       -99.90      -99.90      -99.90      -99.90      -99.90      -99.90      -99.90      -99.90      -99.90      -99.90    
  24   -99.90      -99.90      -99.90      -99.90      -99.90      -99.90      -99.90      -99.90      -99.90      -99.90    
       -99.90      -99.90      -99.90      -99.90      -99.90      -99.90      -99.90      -99.90      -99.90      -99.90    
       -99.90      -99.90      -99.90      -99.90      -99.90      -99.90      -99.90      -99.90      -99.90      -99.90    
       -99.90      -99.90      -99.90      -99.90      -99.90      -99.90      -99.90      -99.90      -99.90      -99.90    
  25   -99.90      -99.90      -99.90      -99.90      -99.90      -99.90      -99.90      -99.90      -99.90      -99.90    
       -99.90      -99.90      -99.90      -99.90      -99.90      -99.90      -99.90      -99.90      -99.90      -99.90    
       -99.90      -99.90      -99.90      -99.90      -99.90      -99.90      -99.90      -99.90      -99.90      -99.90    
       -99.90      -99.90      -99.90      -99.90      -99.90      -99.90      -99.90      -99.90      -99.90      -99.90    
  26   -99.90      -99.90      -99.90      -99.90      -99.90      -99.90      -99.90      -99.90      -99.90      -99.90    
       -99.90      -99.90      -99.90      -99.90      -99.90      -99.90      -99.90      -99.90      -99.90      -99.90    
       -99.90      -99.90      -99.90      -99.90      -99.90      -99.90      -99.90      -99.90      -99.90      -99.90    
       -99.90      -99.90      -99.90      -99.90      -99.90      -99.90      -99.90      -99.90      -99.90      -99.90    
  27   -99.90      -99.90      -99.90      -99.90      -99.90      -99.90      -99.90      -99.90      -99.90      -99.90    
       -99.90      -99.90      -99.90      -99.90      -99.90      -99.90      -99.90      -99.90      -99.90      -99.90    
       -99.90      -99.90      -99.90      -99.90      -99.90      -99.90      -99.90      -99.90      -99.90      -99.90    
       -99.90      -99.90      -99.90      -99.90      -99.90      -99.90      -99.90      -99.90      -99.90      -99.90    
  28   -99.90      -99.90      -99.90      -99.90      -99.90      -99.90      -99.90      -99.90      -99.90      -99.90    
       -99.90      -99.90      -99.90      -99.90      -99.90      -99.90      -99.90      -99.90      -99.90      -99.90    
       -99.90      -99.90      -99.90      -99.90      -99.90      -99.90      -99.90      -99.90      -99.90      -99.90    
       -99.90      -99.90      -99.90      -99.90      -99.90      -99.90      -99.90      -99.90      -99.90      -99.90    
  29   -99.90      -99.90      -99.90      -99.90      -99.90      -99.90      -99.90      -99.90      -99.90      -99.90    
       -99.90      -99.90      -99.90      -99.90      -99.90      -99.90      -99.90      -99.90      -99.90      -99.90    
       -99.90      -99.90      -99.90      -99.90      -99.90      -99.90      -99.90      -99.90      -99.90      -99.90    
       -99.90      -99.90      -99.90      -99.90      -99.90      -99.90      -99.90      -99.90      -99.90      -99.90    
  30   -99.90      -99.90      -99.90      -99.90      -99.90      -99.90      -99.90      -99.90      -99.90      -99.90    
       -99.90      -99.90      -99.90      -99.90      -99.90      -99.90      -99.90      -99.90      -99.90      -99.90    
       -99.90      -99.90      -99.90      -99.90      -99.90      -99.90      -99.90      -99.90      -99.90      -99.90    
       -99.90      -99.90      -99.90      -99.90      -99.90      -99.90      -99.90      -99.90      -99.90      -99.90    
  31   -99.90      -99.90      -99.90      -99.90      -99.90      -99.90      -99.90      -99.90      -99.90      -99.90    
       -99.90      -99.90      -99.90      -99.90      -99.90      -99.90      -99.90      -99.90      -99.90      -99.90    
       -99.90      -99.90      -99.90      -99.90      -99.90      -99.90      -99.90      -99.90      -99.90      -99.90    
       -99.90      -99.90      -99.90      -99.90      -99.90      -99.90      -99.90      -99.90      -99.90      -99.90    
  32   -99.90      -99.90      -99.90      -99.90      -99.90      -99.90      -99.90      -99.90      -99.90      -99.90    
       -99.90      -99.90      -99.90      -99.90      -99.90      -99.90      -99.90      -99.90      -99.90      -99.90    
       -99.90      -99.90      -99.90      -99.90      -99.90      -99.90      -99.90      -99.90      -99.90      -99.90    
       -99.90      -99.90      -99.90      -99.90      -99.90      -99.90      -99.90      -99.90      -99.90      -99.90    
  33   -99.90      -99.90      -99.90      -99.90      -99.90      -99.90      -99.90      -99.90      -99.90      -99.90    
       -99.90      -99.90      -99.90      -99.90      -99.90      -99.90      -99.90      -99.90      -99.90      -99.90    
       -99.90      -99.90      -99.90      -99.90      -99.90      -99.90      -99.90      -99.90      -99.90      -99.90    
       -99.90      -99.90      -99.90      -99.90      -99.90      -99.90      -99.90      -99.90      -99.90      -99.90    
  34   -99.90      -99.90      -99.90      -99.90      -99.90      -99.90      -99.90      -99.90      -99.90      -99.90    
       -99.90      -99.90      -99.90      -99.90      -99.90      -99.90      -99.90      -99.90      -99.90      -99.90    
       -99.90      -99.90      -99.90      -99.90      -99.90      -99.90      -99.90      -99.90      -99.90      -99.90    
       -99.90      -99.90      -99.90      -99.90      -99.90      -99.90      -99.90      -99.90      -99.90      -99.90    
  35   -99.90      -99.90      -99.90      -99.90      -99.90      -99.90      -99.90      -99.90      -99.90      -99.90    
       -99.90      -99.90      -99.90      -99.90      -99.90      -99.90      -99.90      -99.90      -99.90      -99.90    
       -99.90      -99.90      -99.90      -99.90      -99.90      -99.90      -99.90      -99.90      -99.90      -99.90    
       -99.90      -99.90      -99.90      -99.90      -99.90      -99.90      -99.90      -99.90      -99.90      -99.90    
  36   -99.90      -99.90      -99.90      -99.90      -99.90      -99.90      -99.90      -99.90      -99.90      -99.90    
       -99.90      -99.90      -99.90      -99.90      -99.90      -99.90      -99.90      -99.90      -99.90      -99.90    
       -99.90      -99.90      -99.90      -99.90      -99.90      -99.90      -99.90      -99.90      -99.90      -99.90    
       -99.90      -99.90      -99.90      -99.90      -99.90      -99.90      -99.90      -99.90      -99.90      -99.90    
  37   -99.90      -99.90      -99.90      -99.90      -99.90      -99.90      -99.90      -99.90      -99.90      -99.90    
       -99.90      -99.90      -99.90      -99.90      -99.90      -99.90      -99.90      -99.90      -99.90      -99.90    
       -99.90      -99.90      -99.90      -99.90      -99.90      -99.90      -99.90      -99.90      -99.90      -99.90    
       -99.90      -99.90      -99.90      -99.90      -99.90      -99.90      -99.90      -99.90      -99.90      -99.90    
  38   -99.90      -99.90      -99.90      -99.90      -99.90      -99.90      -99.90      -99.90      -99.90      -99.90    
       -99.90      -99.90      -99.90      -99.90      -99.90      -99.90      -99.90      -99.90      -99.90      -99.90    
       -99.90      -99.90      -99.90      -99.90      -99.90      -99.90      -99.90      -99.90      -99.90      -99.90    
       -99.90      -99.90      -99.90      -99.90      -99.90      -99.90      -99.90      -99.90      -99.90      -99.90    
  39   -99.90      -99.90      -99.90      -99.90      -99.90      -99.90      -99.90      -99.90      -99.90      -99.90    
       -99.90      -99.90      -99.90      -99.90      -99.90      -99.90      -99.90      -99.90      -99.90      -99.90    
       -99.90      -99.90      -99.90      -99.90      -99.90      -99.90      -99.90      -99.90      -99.90      -99.90    
       -99.90      -99.90      -99.90      -99.90      -99.90      -99.90      -99.90      -99.90      -99.90      -99.90    
  40   -99.90      -99.90      -99.90      -99.90      -99.90      -99.90      -99.90      -99.90      -99.90      -99.90    
       -99.90      -99.90      -99.90      -99.90      -99.90      -99.90      -99.90      -99.90      -99.90      -99.90    
       -99.90      -99.90      -99.90      -99.90      -99.90      -99.90      -99.90      -99.90      -99.90      -99.90    
       -99.90      -99.90      -99.90      -99.90      -99.90      -99.90      -99.90      -99.90      -99.90      -99.90    
1
              HEAD IN LAYER 2 AT END OF TIME STEP 1 IN STRESS PERIOD 1
  ---------------------------------------------------------------------------

            1           2           3           4           5           6           7           8           9          10
           11          12          13          14          15          16          17          18          19          20
           21          22          23          24          25          26          27          28          29          30
           31          32          33          34          35          36          37          38          39          40
 ........................................................................................................................
   1   -99.90      -99.90      -99.90      -99.90      -99.90      -99.90      -99.90      -99.90      -99.90      -99.90    
       -99.90      -99.90      -99.90      -99.90      -99.90      -99.90      -99.90      -99.90      -99.90      -99.90    
       -99.90      -99.90      -99.90      -99.90      -99.90      -99.90      -99.90      -99.90      -99.90      -99.90    
       -99.90      -99.90      -99.90      -99.90      -99.90      -99.90      -99.90      -99.90      -99.90      -99.90    
   2   -99.90      -99.90      -99.90      -99.90      -99.90      -99.90      -99.90      -99.90      -99.90      -99.90    
       -99.90      -99.90      -99.90      -99.90      -99.90      -99.90      -99.90      -99.90      -99.90      -99.90    
       -99.90      -99.90      -99.90      -99.90      -99.90      -99.90      -99.90      -99.90      -99.90      -99.90    
       -99.90      -99.90      -99.90      -99.90      -99.90      -99.90      -99.90      -99.90      -99.90      -99.90    
   3   -99.90      -99.90      -99.90      -99.90      -99.90      -99.90      -99.90      -99.90      -99.90      -99.90    
       -99.90      -99.90      -99.90      -99.90      -99.90      -99.90      -99.90      -99.90      -99.90      -99.90    
       -99.90      -99.90      -99.90      -99.90      -99.90      -99.90      -99.90      -99.90      -99.90      -99.90    
       -99.90      -99.90      -99.90      -99.90      -99.90      -99.90      -99.90      -99.90      -99.90      -99.90    
   4   -99.90      -99.90      -99.90      -99.90      -99.90      -99.90      -99.90      -99.90      -99.90      -99.90    
       -99.90      -99.90      -99.90      -99.90      -99.90      -99.90      -99.90      -99.90      -99.90      -99.90    
       -99.90      -99.90      -99.90      -99.90      -99.90      -99.90      -99.90      -99.90      -99.90      -99.90    
       -99.90      -99.90      -99.90      -99.90      -99.90      -99.90      -99.90      -99.90      -99.90      -99.90    
   5   -99.90      -99.90      -99.90      -99.90      -99.90      -99.90      -99.90      -99.90      -99.90      -99.90    
       -99.90      -99.90      -99.90      -99.90      -99.90      -99.90      -99.90      -99.90      -99.90      -99.90    
       -99.90      -99.90      -99.90      -99.90      -99.90      -99.90      -99.90      -99.90      -99.90      -99.90    
       -99.90      -99.90      -99.90      -99.90      -99.90      -99.90      -99.90      -99.90      -99.90      -99.90    
   6   -99.90      -99.90      -99.90      -99.90      -99.90      -99.90      -99.90      -99.90      -99.90      -99.90    
       -99.90      -99.90      -99.90      -99.90      -99.90      -99.90      -99.90      -99.90      -99.90      -99.90    
       -99.90      -99.90      -99.90      -99.90      -99.90      -99.90      -99.90      -99.90      -99.90      -99.90    
       -99.90      -99.90      -99.90      -99.90      -99.90      -99.90      -99.90      -99.90      -99.90      -99.90    
   7   -99.90      -99.90      -99.90      -99.90      -99.90      -99.90      -99.90      -99.90      -99.90      -99.90    
       -99.90      -99.90      -99.90      -99.90      -99.90      -99.90      -99.90      -99.90      -99.90      -99.90    
       -99.90      -99.90      -99.90      -99.90      -99.90      -99.90      -99.90      -99.90      -99.90      -99.90    
       -99.90      -99.90      -99.90      -99.90      -99.90      -99.90      -99.90      -99.90      -99.90      -99.90    
[...]
        26.85       26.59       26.36       26.16       25.99       25.84       25.71       25.60       25.50       25.42    
        25.34       25.28       25.23       25.19       25.15       25.11       25.08       25.05       25.03       25.00    
   6    39.06       38.76       38.19       37.44       36.59       35.70       34.81       33.93       33.09       32.29    
        31.55       30.85       30.21       29.62       29.08       28.59       28.15       27.75       27.39       27.07    
        26.79       26.54       26.32       26.13       25.96       25.81       25.69       25.58       25.48       25.40    
        25.33       25.27       25.22       25.18       25.14       25.11       25.08       25.05       25.02       25.00    
   7    37.47       37.24       36.81       36.23       35.55       34.81       34.04       33.28       32.54       31.83    
        31.15       30.51       29.92       29.38       28.87       28.41       28.00       27.62       27.28       26.98    
        26.71       26.47       26.26       26.08       25.92       25.78       25.66       25.56       25.47       25.39    
        25.32       25.27       25.22       25.17       25.14       25.10       25.08       25.05       25.02       25.00    
   8    36.08       35.90       35.57       35.10       34.54       33.93       33.28       32.62       31.97       31.34    
        30.73       30.15       29.61       29.11       28.65       28.22       27.83       27.48       27.16       26.88    
        26.63       26.40       26.20       26.03       25.88       25.75       25.63       25.53       25.45       25.37    
        25.31       25.25       25.21       25.17       25.13       25.10       25.07       25.05       25.02       25.00    
   9    34.84       34.70       34.43       34.06       33.60       33.09       32.54       31.97       31.40       30.84    
        30.30       29.78       29.29       28.83       28.41       28.02       27.66       27.33       27.04       26.77    
        26.54       26.33       26.14       25.98       25.83       25.71       25.60       25.51       25.42       25.35    
        25.29       25.24       25.20       25.16       25.13       25.10       25.07       25.05       25.02       25.00    
  10    33.74       33.62       33.41       33.10       32.72       32.29       31.83       31.34       30.84       30.35    
        29.87       29.41       28.97       28.55       28.16       27.81       27.48       27.18       26.90       26.66    
        26.44       26.24       26.07       25.92       25.79       25.67       25.57       25.48       25.40       25.34    
        25.28       25.23       25.19       25.15       25.12       25.09       25.07       25.04       25.02       25.00    
  11    32.74       32.65       32.48       32.22       31.91       31.55       31.15       30.73       30.30       29.87    
        29.45       29.04       28.64       28.27       27.92       27.59       27.29       27.02       26.77       26.54    
        26.34       26.16       26.00       25.86       25.74       25.63       25.53       25.45       25.38       25.32    
        25.26       25.22       25.18       25.14       25.11       25.09       25.06       25.04       25.02       25.00    
  12    31.85       31.78       31.63       31.42       31.16       30.85       30.51       30.15       29.78       29.41    
        29.04       28.67       28.32       27.99       27.67       27.38       27.11       26.86       26.63       26.43    
        26.24       26.08       25.93       25.80       25.69       25.58       25.50       25.42       25.35       25.30    
        25.25       25.20       25.17       25.13       25.11       25.08       25.06       25.04       25.02       25.00    
  13    31.05       30.98       30.86       30.69       30.47       30.21       29.92       29.61       29.29       28.97    
        28.64       28.32       28.01       27.72       27.44       27.17       26.93       26.71       26.50       26.31    
        26.15       25.99       25.86       25.74       25.63       25.54       25.46       25.39       25.33       25.28    
        25.23       25.19       25.16       25.13       25.10       25.08       25.06       25.04       25.02       25.00    
  14    30.32       30.27       30.17       30.02       29.84       29.62       29.38       29.11       28.83       28.55    
        28.27       27.99       27.72       27.46       27.21       26.97       26.76       26.55       26.37       26.20    
        26.05       25.91       25.79       25.68       25.58       25.50       25.43       25.36       25.31       25.26    
        25.21       25.18       25.15       25.12       25.09       25.07       25.05       25.03       25.02       25.00    
  15    29.67       29.63       29.55       29.42       29.27       29.08       28.87       28.65       28.41       28.16    
        27.92       27.67       27.44       27.21       26.99       26.78       26.59       26.41       26.24       26.09    
        25.95       25.83       25.72       25.62       25.54       25.46       25.39       25.33       25.28       25.24    
        25.20       25.16       25.13       25.11       25.09       25.07       25.05       25.03       25.02       25.00    
  16    29.09       29.05       28.98       28.88       28.75       28.59       28.41       28.22       28.02       27.81    
        27.59       27.38       27.17       26.97       26.78       26.60       26.43       26.27       26.12       25.99    
        25.86       25.75       25.66       25.57       25.49       25.42       25.36       25.30       25.26       25.22    
        25.18       25.15       25.12       25.10       25.08       25.06       25.04       25.03       25.01       25.00    
  17    28.57       28.54       28.48       28.39       28.28       28.15       28.00       27.83       27.66       27.48    
        27.29       27.11       26.93       26.76       26.59       26.43       26.28       26.14       26.01       25.89    
        25.78       25.68       25.59       25.51       25.44       25.38       25.33       25.28       25.23       25.20    
        25.17       25.14       25.11       25.09       25.07       25.06       25.04       25.03       25.01       25.00    
  18    28.10       28.08       28.03       27.95       27.86       27.75       27.62       27.48       27.33       27.18    
        27.02       26.86       26.71       26.55       26.41       26.27       26.14       26.01       25.90       25.79    
        25.70       25.61       25.53       25.46       25.40       25.34       25.29       25.25       25.21       25.18    
        25.15       25.13       25.10       25.08       25.07       25.05       25.04       25.02       25.01       25.00    
  19    27.69       27.67       27.62       27.56       27.48       27.39       27.28       27.16       27.04       26.90    
        26.77       26.63       26.50       26.37       26.24       26.12       26.01       25.90       25.80       25.71    
        25.62       25.55       25.48       25.41       25.36       25.31       25.26       25.23       25.19       25.16    
        25.14       25.11       25.09       25.08       25.06       25.05       25.03       25.02       25.01       25.00    
  20    27.32       27.30       27.27       27.22       27.15       27.07       26.98       26.88       26.77       26.66    
        26.54       26.43       26.31       26.20       26.09       25.99       25.89       25.79       25.71       25.63    
        25.55       25.49       25.42       25.37       25.32       25.28       25.24       25.20       25.17       25.15    
        25.12       25.10       25.08       25.07       25.05       25.04       25.03       25.02       25.01       25.00    
  21    27.00       26.98       26.95       26.91       26.85       26.79       26.71       26.63       26.54       26.44    
        26.34       26.24       26.15       26.05       25.95       25.86       25.78       25.70       25.62       25.55    
        25.49       25.43       25.38       25.33       25.28       25.25       25.21       25.18       25.15       25.13    
        25.11       25.09       25.08       25.06       25.05       25.04       25.03       25.02       25.01       25.00    
  22    26.71       26.70       26.68       26.64       26.59       26.54       26.47       26.40       26.33       26.24    
        26.16       26.08       25.99       25.91       25.83       25.75       25.68       25.61       25.55       25.49    
        25.43       25.38       25.33       25.29       25.25       25.22       25.19       25.16       25.14       25.12    
        25.10       25.08       25.07       25.06       25.04       25.03       25.02       25.02       25.01       25.00    
  23    26.47       26.45       26.43       26.40       26.36       26.32       26.26       26.20       26.14       26.07    
        26.00       25.93       25.86       25.79       25.72       25.66       25.59       25.53       25.48       25.42    
        25.38       25.33       25.29       25.25       25.22       25.19       25.17       25.14       25.12       25.10    
        25.09       25.07       25.06       25.05       25.04       25.03       25.02       25.01       25.01       25.00    
  24    26.25       26.24       26.22       26.20       26.16       26.13       26.08       26.03       25.98       25.92    
        25.86       25.80       25.74       25.68       25.62       25.57       25.51       25.46       25.41       25.37    
        25.33       25.29       25.25       25.22       25.19       25.17       25.15       25.13       25.11       25.09    
        25.08       25.06       25.05       25.04       25.03       25.03       25.02       25.01       25.01       25.00    
  25    26.06       26.05       26.04       26.02       25.99       25.96       25.92       25.88       25.83       25.79    
        25.74       25.69       25.63       25.58       25.54       25.49       25.44       25.40       25.36       25.32    
        25.28       25.25       25.22       25.19       25.17       25.15       25.13       25.11       25.09       25.08    
        25.07       25.06       25.05       25.04       25.03       25.02       25.02       25.01       25.01       25.00    
  26    25.90       25.89       25.88       25.86       25.84       25.81       25.78       25.75       25.71       25.67    
        25.63       25.58       25.54       25.50       25.46       25.42       25.38       25.34       25.31       25.28    
        25.25       25.22       25.19       25.17       25.15       25.13       25.11       25.10       25.08       25.07    
        25.06       25.05       25.04       25.03       25.03       25.02       25.02       25.01       25.00       25.00    
  27    25.76       25.75       25.74       25.73       25.71       25.69       25.66       25.63       25.60       25.57    
        25.53       25.50       25.46       25.43       25.39       25.36       25.33       25.29       25.26       25.24    
        25.21       25.19       25.17       25.15       25.13       25.11       25.10       25.08       25.07       25.06    
        25.05       25.04       25.04       25.03       25.02       25.02       25.01       25.01       25.00       25.00    
  28    25.63       25.63       25.62       25.61       25.60       25.58       25.56       25.53       25.51       25.48    
        25.45       25.42       25.39       25.36       25.33       25.30       25.28       25.25       25.23       25.20    
        25.18       25.16       25.14       25.13       25.11       25.10       25.08       25.07       25.06       25.05    
        25.05       25.04       25.03       25.03       25.02       25.02       25.01       25.01       25.00       25.00    
  29    25.53       25.53       25.52       25.51       25.50       25.48       25.47       25.45       25.42       25.40    
        25.38       25.35       25.33       25.31       25.28       25.26       25.23       25.21       25.19       25.17    
        25.15       25.14       25.12       25.11       25.09       25.08       25.07       25.06       25.05       25.05    
        25.04       25.03       25.03       25.02       25.02       25.01       25.01       25.01       25.00       25.00    
  30    25.44       25.44       25.43       25.43       25.42       25.40       25.39       25.37       25.35       25.34    
        25.32       25.30       25.28       25.26       25.24       25.22       25.20       25.18       25.16       25.15    
        25.13       25.12       25.10       25.09       25.08       25.07       25.06       25.05       25.05       25.04    
        25.03       25.03       25.02       25.02       25.02       25.01       25.01       25.01       25.00       25.00    
  31    25.37       25.36       25.36       25.35       25.34       25.33       25.32       25.31       25.29       25.28    
        25.26       25.25       25.23       25.21       25.20       25.18       25.17       25.15       25.14       25.12    
        25.11       25.10       25.09       25.08       25.07       25.06       25.05       25.05       25.04       25.03    
        25.03       25.02       25.02       25.02       25.01       25.01       25.01       25.00       25.00       25.00    
  32    25.30       25.30       25.30       25.29       25.28       25.27       25.27       25.25       25.24       25.23    
        25.22       25.20       25.19       25.18       25.16       25.15       25.14       25.13       25.11       25.10    
        25.09       25.08       25.07       25.06       25.06       25.05       25.04       25.04       25.03       25.03    
        25.02       25.02       25.02       25.01       25.01       25.01       25.01       25.00       25.00       25.00    
  33    25.24       25.24       25.24       25.24       25.23       25.22       25.22       25.21       25.20       25.19    
        25.18       25.17       25.16       25.15       25.13       25.12       25.11       25.10       25.09       25.08    
        25.08       25.07       25.06       25.05       25.05       25.04       25.04       25.03       25.03       25.02    
        25.02       25.02       25.01       25.01       25.01       25.01       25.01       25.00       25.00       25.00    
  34    25.20       25.20       25.19       25.19       25.19       25.18       25.17       25.17       25.16       25.15    
        25.14       25.13       25.13       25.12       25.11       25.10       25.09       25.08       25.08       25.07    
        25.06       25.06       25.05       25.04       25.04       25.03       25.03       25.03       25.02       25.02    
        25.02       25.01       25.01       25.01       25.01       25.01       25.00       25.00       25.00       25.00    
  35    25.15       25.15       25.15       25.15       25.15       25.14       25.14       25.13       25.13       25.12    
        25.11       25.11       25.10       25.09       25.09       25.08       25.07       25.07       25.06       25.05    
        25.05       25.04       25.04       25.03       25.03       25.03       25.02       25.02       25.02       25.02    
        25.01       25.01       25.01       25.01       25.01       25.00       25.00       25.00       25.00       25.00    
  36    25.12       25.12       25.12       25.11       25.11       25.11       25.10       25.10       25.10       25.09    
        25.09       25.08       25.08       25.07       25.07       25.06       25.06       25.05       25.05       25.04    
        25.04       25.03       25.03       25.03       25.02       25.02       25.02       25.02       25.01       25.01    
        25.01       25.01       25.01       25.01       25.00       25.00       25.00       25.00       25.00       25.00    
  37    25.08       25.08       25.08       25.08       25.08       25.08       25.08       25.07       25.07       25.07    
        25.06       25.06       25.06       25.05       25.05       25.04       25.04       25.04       25.03       25.03    
        25.03       25.02       25.02       25.02       25.02       25.02       25.01       25.01       25.01       25.01    
        25.01       25.01       25.01       25.00       25.00       25.00       25.00       25.00       25.00       25.00    
  38    25.06       25.05       25.05       25.05       25.05       25.05       25.05       25.05       25.05       25.04    
        25.04       25.04       25.04       25.03       25.03       25.03       25.03       25.02       25.02       25.02    
        25.02       25.02       25.01       25.01       25.01       25.01       25.01       25.01       25.01       25.01    
        25.00       25.00       25.00       25.00       25.00       25.00       25.00       25.00       25.00       25.00    
  39    25.03       25.03       25.03       25.03       25.03       25.02       25.02       25.02       25.02       25.02    
        25.02       25.02       25.02       25.02       25.02       25.01       25.01       25.01       25.01       25.01    
        25.01       25.01       25.01       25.01       25.01       25.00       25.00       25.00       25.00       25.00    
        25.00       25.00       25.00       25.00       25.00       25.00       25.00       25.00       25.00       25.00    
  40    25.00       25.00       25.00       25.00       25.00       25.00       25.00       25.00       25.00       25.00    
        25.00       25.00       25.00       25.00       25.00       25.00       25.00       25.00       25.00       25.00    
        25.00       25.00       25.00       25.00       25.00       25.00       25.00       25.00       25.00       25.00    
        25.00       25.00       25.00       25.00       25.00       25.00       25.00       25.00       25.00       25.00    

 HEAD WILL BE SAVED ON UNIT   51 AT END OF TIME STEP   17, STRESS PERIOD    3
1
  VOLUMETRIC BUDGET FOR ENTIRE MODEL AT END OF TIME STEP   17, STRESS PERIOD   3
  ------------------------------------------------------------------------------

     CUMULATIVE VOLUMES      L**3       RATES FOR THIS TIME STEP      L**3/T
     ------------------                 ------------------------

           IN:                                      IN:
           ---                                      ---
             STORAGE     =       8.9209E-02               STORAGE     =       9.5402E-20
       CONSTANT HEAD     =       6.8556E-10         CONSTANT HEAD     =           0.0000
            RECHARGE     =     8218751.5000              RECHARGE     =        3125.0000

                TOTAL IN =     8218751.5000                  TOTAL IN =        3125.0000

          OUT:                                     OUT:
          ----                                     ----
             STORAGE     =     8147148.0000               STORAGE     =        3010.0786
       CONSTANT HEAD     =       71601.4766         CONSTANT HEAD     =         114.9063
            RECHARGE     =           0.0000              RECHARGE     =           0.0000

               TOTAL OUT =     8218749.5000                 TOTAL OUT =        3124.9849

                IN - OUT =           2.0000                  IN - OUT =       1.5137E-02

     PERCENT DISCREPANCY =           0.00         PERCENT DISCREPANCY =           0.00






         TIME SUMMARY AT END OF TIME STEP   17 IN STRESS PERIOD    3
                    SECONDS     MINUTES      HOURS       DAYS        YEARS
                    -----------------------------------------------------------
   TIME STEP LENGTH 9.76828E+06 1.62805E+05  2713.4      113.06     0.30954    
 STRESS PERIOD TIME 1.66061E+08 2.76768E+06  46128.      1922.0      5.2621    
         TOTAL TIME 2.27232E+08 3.78720E+06  63120.      2630.0      7.2005    
1


 Run end date and time (yyyy/mm/dd hh:mm:ss): 2023/05/11  8:47:54
 Elapsed run time: 10.346 Seconds

