1
 SUMMARY VOLUMETRIC BUDGET FOR GSFLOW 
 DATE: 10 07 1980              CUMULATIVE TIME STEP:       7
 MODFLOW STRESS PERIOD      2     CURRENT TIME STEP:       7     ITERATIONS:       6

 -----------------------------------------------------------------------------------

   CUMULATIVE VOLUMES               L**3   RATES FOR THIS TIME STEP           L**3/T
   ------------------                      ------------------------

                                     IN                                         IN
                                     --                                         --
        PRECIPITATION =                            PRECIPITATION =                  
           STREAMFLOW =                               STREAMFLOW =                  
     GW BOUNDARY FLOW =                         GW BOUNDARY FLOW =                  


                                    OUT                                        OUT
                                    ---                                        ---
   EVAPOTRANSPIRATION =          63501.87     EVAPOTRANSPIRATION =           9679.38
           STREAMFLOW =          42957.63             STREAMFLOW =           6065.77
     GW BOUNDARY FLOW =           4541.44       GW BOUNDARY FLOW =            648.70

   INFLOWS - OUTFLOWS =        -111000.94     INFLOWS - OUTFLOWS =         -16393.85
             --------                                   --------

 TOTAL STORAGE CHANGE =        -110545.15         STORAGE CHANGE =         -16325.53
       --------------                             --------------
         LAND SURFACE =                             LAND SURFACE =                  
            SOIL ZONE =          47015.18              SOIL ZONE =           6017.04
     UNSATURATED ZONE =        -144777.37       UNSATURATED ZONE =         -20360.11
       SATURATED ZONE =         -12782.96         SATURATED ZONE =          -1982.46

 OVERALL BUDGET ERROR =           -455.78           BUDGET ERROR =            -68.32


  PERCENT DISCREPANCY =             -0.41    PERCENT DISCREPANCY =             -0.42



1
 SUMMARY VOLUMETRIC BUDGET FOR GSFLOW 
 DATE: 10 14 1980              CUMULATIVE TIME STEP:      14
 MODFLOW STRESS PERIOD      2     CURRENT TIME STEP:      14     ITERATIONS:       6

 -----------------------------------------------------------------------------------

   CUMULATIVE VOLUMES               L**3   RATES FOR THIS TIME STEP           L**3/T
   ------------------                      ------------------------

                                     IN                                         IN
                                     --                                         --
        PRECIPITATION =         650779.83          PRECIPITATION =         164754.40
           STREAMFLOW =                               STREAMFLOW =                  
     GW BOUNDARY FLOW =                         GW BOUNDARY FLOW =                  


                                    OUT                                        OUT
                                    ---                                        ---
   EVAPOTRANSPIRATION =         147518.25     EVAPOTRANSPIRATION =           7886.47
           STREAMFLOW =          92677.73             STREAMFLOW =           7494.67
     GW BOUNDARY FLOW =           9082.78       GW BOUNDARY FLOW =            648.89

   INFLOWS - OUTFLOWS =         401501.07     INFLOWS - OUTFLOWS =         148724.36
             --------                                   --------

 TOTAL STORAGE CHANGE =         402471.62         STORAGE CHANGE =         148798.38
       --------------                             --------------
         LAND SURFACE =         277689.24           LAND SURFACE =         136623.45
            SOIL ZONE =         436909.23              SOIL ZONE =          34192.78
     UNSATURATED ZONE =        -284452.37       UNSATURATED ZONE =         -19623.49
       SATURATED ZONE =         -27674.48         SATURATED ZONE =          -2394.36

 OVERALL BUDGET ERROR =           -970.55           BUDGET ERROR =            -74.01


  PERCENT DISCREPANCY =             -0.15    PERCENT DISCREPANCY =             -0.04



1
 SUMMARY VOLUMETRIC BUDGET FOR GSFLOW 
 DATE: 10 21 1980              CUMULATIVE TIME STEP:      21
 MODFLOW STRESS PERIOD      2     CURRENT TIME STEP:      21     ITERATIONS:       6

 -----------------------------------------------------------------------------------

   CUMULATIVE VOLUMES               L**3   RATES FOR THIS TIME STEP           L**3/T
   ------------------                      ------------------------

                                     IN                                         IN
                                     --                                         --
        PRECIPITATION =         733157.03          PRECIPITATION =                  
           STREAMFLOW =                               STREAMFLOW =                  
     GW BOUNDARY FLOW =                         GW BOUNDARY FLOW =                  


                                    OUT                                        OUT
                                    ---                                        ---
   EVAPOTRANSPIRATION =         373106.45     EVAPOTRANSPIRATION =          36446.75
           STREAMFLOW =         144891.64             STREAMFLOW =           7106.25
     GW BOUNDARY FLOW =          13624.56       GW BOUNDARY FLOW =            648.77

   INFLOWS - OUTFLOWS =         201534.38     INFLOWS - OUTFLOWS =         -44201.78
             --------                                   --------

 TOTAL STORAGE CHANGE =         203016.61         STORAGE CHANGE =         -44120.58
       --------------                             --------------
         LAND SURFACE =           2250.88           LAND SURFACE =          -3153.72
            SOIL ZONE =         665732.89              SOIL ZONE =         -19175.27
     UNSATURATED ZONE =        -418622.15       UNSATURATED ZONE =         -18801.02
       SATURATED ZONE =         -46345.02         SATURATED ZONE =          -2990.56

 OVERALL BUDGET ERROR =          -1482.23           BUDGET ERROR =            -81.20


  PERCENT DISCREPANCY =             -0.20    PERCENT DISCREPANCY =             -0.18



1
 SUMMARY VOLUMETRIC BUDGET FOR GSFLOW 
 DATE: 10 28 1980              CUMULATIVE TIME STEP:      28
 MODFLOW STRESS PERIOD      2     CURRENT TIME STEP:      28     ITERATIONS:       6

 -----------------------------------------------------------------------------------

   CUMULATIVE VOLUMES               L**3   RATES FOR THIS TIME STEP           L**3/T
   ------------------                      ------------------------

                                     IN                                         IN
                                     --                                         --
        PRECIPITATION =        1070903.53          PRECIPITATION =                  
           STREAMFLOW =                               STREAMFLOW =                  
     GW BOUNDARY FLOW =                         GW BOUNDARY FLOW =                  


                                    OUT                                        OUT
                                    ---                                        ---
   EVAPOTRANSPIRATION =         550293.57     EVAPOTRANSPIRATION =          23594.60
           STREAMFLOW =         199837.47             STREAMFLOW =           7989.81
     GW BOUNDARY FLOW =          18165.91       GW BOUNDARY FLOW =            648.81

   INFLOWS - OUTFLOWS =         302606.57     INFLOWS - OUTFLOWS =         -32233.22
             --------                                   --------

 TOTAL STORAGE CHANGE =         304662.11         STORAGE CHANGE =         -32146.55
       --------------                             --------------
         LAND SURFACE =          24619.51           LAND SURFACE =         -30948.99
            SOIL ZONE =         896185.61              SOIL ZONE =          20270.79
     UNSATURATED ZONE =        -547225.29       UNSATURATED ZONE =         -17994.14
       SATURATED ZONE =         -68917.73         SATURATED ZONE =          -3474.20

 OVERALL BUDGET ERROR =          -2055.54           BUDGET ERROR =            -86.67


  PERCENT DISCREPANCY =             -0.19    PERCENT DISCREPANCY =             -0.27



1
 SUMMARY VOLUMETRIC BUDGET FOR GSFLOW 
 DATE: 11 04 1980              CUMULATIVE TIME STEP:      35
 MODFLOW STRESS PERIOD      2     CURRENT TIME STEP:      35     ITERATIONS:       6

 -----------------------------------------------------------------------------------

   CUMULATIVE VOLUMES               L**3   RATES FOR THIS TIME STEP           L**3/T
   ------------------                      ------------------------

                                     IN                                         IN
                                     --                                         --
        PRECIPITATION =        1070903.53          PRECIPITATION =                  
           STREAMFLOW =                               STREAMFLOW =                  
     GW BOUNDARY FLOW =                         GW BOUNDARY FLOW =                  


                                    OUT                                        OUT
                                    ---                                        ---
   EVAPOTRANSPIRATION =         825642.71     EVAPOTRANSPIRATION =          34462.49
           STREAMFLOW =         252309.53             STREAMFLOW =           7019.11
     GW BOUNDARY FLOW =          22706.92       GW BOUNDARY FLOW =            648.64

   INFLOWS - OUTFLOWS =         -29755.64     INFLOWS - OUTFLOWS =         -42130.25
             --------                                   --------

 TOTAL STORAGE CHANGE =         -27077.59         STORAGE CHANGE =         -42038.19
       --------------                             --------------
         LAND SURFACE =                             LAND SURFACE =                  
            SOIL ZONE =         739553.21              SOIL ZONE =         -20541.14
     UNSATURATED ZONE =        -670721.39       UNSATURATED ZONE =         -17376.07
       SATURATED ZONE =         -95909.41         SATURATED ZONE =          -4120.98

 OVERALL BUDGET ERROR =          -2678.04           BUDGET ERROR =            -92.05


  PERCENT DISCREPANCY =             -0.24    PERCENT DISCREPANCY =             -0.22



1
 SUMMARY VOLUMETRIC BUDGET FOR GSFLOW 
 DATE: 11 11 1980              CUMULATIVE TIME STEP:      42
 MODFLOW STRESS PERIOD      2     CURRENT TIME STEP:      42     ITERATIONS:       7

 -----------------------------------------------------------------------------------

   CUMULATIVE VOLUMES               L**3   RATES FOR THIS TIME STEP           L**3/T
   ------------------                      ------------------------

                                     IN                                         IN
                                     --                                         --
        PRECIPITATION =        1573762.54          PRECIPITATION =         255182.19
           STREAMFLOW =                               STREAMFLOW =                  
     GW BOUNDARY FLOW =                         GW BOUNDARY FLOW =                  


                                    OUT                                        OUT
                                    ---                                        ---
   EVAPOTRANSPIRATION =        1024610.90     EVAPOTRANSPIRATION =          14645.82
           STREAMFLOW =         308288.48             STREAMFLOW =          10774.62
     GW BOUNDARY FLOW =          27247.65       GW BOUNDARY FLOW =            648.84

   INFLOWS - OUTFLOWS =         213615.52     INFLOWS - OUTFLOWS =         229112.90
             --------                                   --------

 TOTAL STORAGE CHANGE =         216896.18         STORAGE CHANGE =         229182.50
       --------------                             --------------
         LAND SURFACE =          78612.95           LAND SURFACE =          76659.87
            SOIL ZONE =        1053412.39              SOIL ZONE =         173142.42
     UNSATURATED ZONE =        -789347.45       UNSATURATED ZONE =         -16533.96
       SATURATED ZONE =        -125781.71         SATURATED ZONE =          -4085.83

 OVERALL BUDGET ERROR =          -3280.66           BUDGET ERROR =            -69.60


  PERCENT DISCREPANCY =             -0.21    PERCENT DISCREPANCY =             -0.03



1
 SUMMARY VOLUMETRIC BUDGET FOR GSFLOW 
 DATE: 11 18 1980              CUMULATIVE TIME STEP:      49
 MODFLOW STRESS PERIOD      2     CURRENT TIME STEP:      49     ITERATIONS:       6

 -----------------------------------------------------------------------------------

   CUMULATIVE VOLUMES               L**3   RATES FOR THIS TIME STEP           L**3/T
   ------------------                      ------------------------

                                     IN                                         IN
                                     --                                         --
        PRECIPITATION =        1573762.54          PRECIPITATION =                  
           STREAMFLOW =                               STREAMFLOW =                  
     GW BOUNDARY FLOW =                         GW BOUNDARY FLOW =                  


                                    OUT                                        OUT
                                    ---                                        ---
   EVAPOTRANSPIRATION =        1113101.75     EVAPOTRANSPIRATION =          16687.22
           STREAMFLOW =         371236.29             STREAMFLOW =           9365.50
     GW BOUNDARY FLOW =          31789.54       GW BOUNDARY FLOW =            648.86

   INFLOWS - OUTFLOWS =          57634.97     INFLOWS - OUTFLOWS =         -26701.59
             --------                                   --------

 TOTAL STORAGE CHANGE =          61586.47         STORAGE CHANGE =         -26598.83
       --------------                             --------------
         LAND SURFACE =           8654.86           LAND SURFACE =          -6203.23
            SOIL ZONE =        1114567.66              SOIL ZONE =            419.43
     UNSATURATED ZONE =        -903276.76       UNSATURATED ZONE =         -16029.00
       SATURATED ZONE =        -158359.29         SATURATED ZONE =          -4786.03

 OVERALL BUDGET ERROR =          -3951.50           BUDGET ERROR =           -102.76


  PERCENT DISCREPANCY =             -0.25    PERCENT DISCREPANCY =             -0.39



1
 SUMMARY VOLUMETRIC BUDGET FOR GSFLOW 
 DATE: 11 25 1980              CUMULATIVE TIME STEP:      56
 MODFLOW STRESS PERIOD      2     CURRENT TIME STEP:      56     ITERATIONS:       7

 -----------------------------------------------------------------------------------

   CUMULATIVE VOLUMES               L**3   RATES FOR THIS TIME STEP           L**3/T
   ------------------                      ------------------------

                                     IN                                         IN
                                     --                                         --
        PRECIPITATION =        1648816.13          PRECIPITATION =                  
           STREAMFLOW =                               STREAMFLOW =                  
     GW BOUNDARY FLOW =                         GW BOUNDARY FLOW =                  


                                    OUT                                        OUT
                                    ---                                        ---
   EVAPOTRANSPIRATION =        1185742.34     EVAPOTRANSPIRATION =           8792.25
           STREAMFLOW =         438545.24             STREAMFLOW =           9977.03
     GW BOUNDARY FLOW =          36331.84       GW BOUNDARY FLOW =            648.94

   INFLOWS - OUTFLOWS =         -11803.29     INFLOWS - OUTFLOWS =         -19418.21
             --------                                   --------

 TOTAL STORAGE CHANGE =          -7194.14         STORAGE CHANGE =         -19340.65
       --------------                             --------------
         LAND SURFACE =          55166.83           LAND SURFACE =          -8744.58
            SOIL ZONE =        1144813.59              SOIL ZONE =          10128.51
     UNSATURATED ZONE =       -1012967.59       UNSATURATED ZONE =         -15413.49
       SATURATED ZONE =        -194206.97         SATURATED ZONE =          -5311.09

 OVERALL BUDGET ERROR =          -4609.15           BUDGET ERROR =            -77.56


  PERCENT DISCREPANCY =             -0.28    PERCENT DISCREPANCY =             -0.40



1
 SUMMARY VOLUMETRIC BUDGET FOR GSFLOW 
 DATE: 12 02 1980              CUMULATIVE TIME STEP:      63
 MODFLOW STRESS PERIOD      2     CURRENT TIME STEP:      63     ITERATIONS:       7

 -----------------------------------------------------------------------------------

   CUMULATIVE VOLUMES               L**3   RATES FOR THIS TIME STEP           L**3/T
   ------------------                      ------------------------

                                     IN                                         IN
                                     --                                         --
        PRECIPITATION =        2076621.55          PRECIPITATION =                  
           STREAMFLOW =                               STREAMFLOW =                  
     GW BOUNDARY FLOW =                         GW BOUNDARY FLOW =                  


                                    OUT                                        OUT
                                    ---                                        ---
   EVAPOTRANSPIRATION =        1375203.86     EVAPOTRANSPIRATION =          33951.94
           STREAMFLOW =         523943.90             STREAMFLOW =          15369.11
     GW BOUNDARY FLOW =          40875.83       GW BOUNDARY FLOW =            649.45

   INFLOWS - OUTFLOWS =         136597.97     INFLOWS - OUTFLOWS =         -49970.50
             --------                                   --------

 TOTAL STORAGE CHANGE =         141705.40         STORAGE CHANGE =         -49897.55
       --------------                             --------------
         LAND SURFACE =         152551.10           LAND SURFACE =         -75205.42
            SOIL ZONE =        1333578.46              SOIL ZONE =          42839.40
     UNSATURATED ZONE =       -1114411.31       UNSATURATED ZONE =         -12960.69
       SATURATED ZONE =        -230012.85         SATURATED ZONE =          -4570.83

 OVERALL BUDGET ERROR =          -5107.43           BUDGET ERROR =            -72.95


  PERCENT DISCREPANCY =             -0.25    PERCENT DISCREPANCY =             -0.15



1
 SUMMARY VOLUMETRIC BUDGET FOR GSFLOW 
 DATE: 12 09 1980              CUMULATIVE TIME STEP:      70
 MODFLOW STRESS PERIOD      2     CURRENT TIME STEP:      70     ITERATIONS:       7

 -----------------------------------------------------------------------------------

   CUMULATIVE VOLUMES               L**3   RATES FOR THIS TIME STEP           L**3/T
   ------------------                      ------------------------

                                     IN                                         IN
                                     --                                         --
        PRECIPITATION =        4284363.63          PRECIPITATION =                  
           STREAMFLOW =                               STREAMFLOW =                  
     GW BOUNDARY FLOW =                         GW BOUNDARY FLOW =                  


                                    OUT                                        OUT
                                    ---                                        ---
   EVAPOTRANSPIRATION =        1398622.23     EVAPOTRANSPIRATION =           2942.43
           STREAMFLOW =         624600.87             STREAMFLOW =          14710.90
     GW BOUNDARY FLOW =          45422.84       GW BOUNDARY FLOW =            649.67

   INFLOWS - OUTFLOWS =        2215717.70     INFLOWS - OUTFLOWS =         -18302.99
             --------                                   --------

 TOTAL STORAGE CHANGE =        2221408.82         STORAGE CHANGE =         -18233.84
       --------------                             --------------
         LAND SURFACE =        2335216.87           LAND SURFACE =          -2942.43
            SOIL ZONE =        1367936.83              SOIL ZONE =           4916.37
     UNSATURATED ZONE =       -1212761.63       UNSATURATED ZONE =         -14233.69
       SATURATED ZONE =        -268983.26         SATURATED ZONE =          -5974.10

 OVERALL BUDGET ERROR =          -5691.12           BUDGET ERROR =            -69.15


  PERCENT DISCREPANCY =             -0.13    PERCENT DISCREPANCY =             -0.38



1
 SUMMARY VOLUMETRIC BUDGET FOR GSFLOW 
 DATE: 12 16 1980              CUMULATIVE TIME STEP:      77
 MODFLOW STRESS PERIOD      2     CURRENT TIME STEP:      77     ITERATIONS:       7

 -----------------------------------------------------------------------------------

   CUMULATIVE VOLUMES               L**3   RATES FOR THIS TIME STEP           L**3/T
   ------------------                      ------------------------

                                     IN                                         IN
                                     --                                         --
        PRECIPITATION =        4284363.63          PRECIPITATION =                  
           STREAMFLOW =                               STREAMFLOW =                  
     GW BOUNDARY FLOW =                         GW BOUNDARY FLOW =                  


                                    OUT                                        OUT
                                    ---                                        ---
   EVAPOTRANSPIRATION =        1540616.12     EVAPOTRANSPIRATION =          33883.35
           STREAMFLOW =         746464.24             STREAMFLOW =          25218.03
     GW BOUNDARY FLOW =          49971.64       GW BOUNDARY FLOW =            650.27

   INFLOWS - OUTFLOWS =        1947311.62     INFLOWS - OUTFLOWS =         -59751.66
             --------                                   --------

 TOTAL STORAGE CHANGE =        1953496.23         STORAGE CHANGE =         -59680.63
       --------------                             --------------
         LAND SURFACE =        2023939.67           LAND SURFACE =        -129021.52
            SOIL ZONE =        1541275.64              SOIL ZONE =          82706.06
     UNSATURATED ZONE =       -1302524.84       UNSATURATED ZONE =          -8985.25
       SATURATED ZONE =        -309194.23         SATURATED ZONE =          -4379.92

 OVERALL BUDGET ERROR =          -6184.60           BUDGET ERROR =            -71.04


  PERCENT DISCREPANCY =             -0.14    PERCENT DISCREPANCY =             -0.12



1
 SUMMARY VOLUMETRIC BUDGET FOR GSFLOW 
 DATE: 12 23 1980              CUMULATIVE TIME STEP:      84
 MODFLOW STRESS PERIOD      2     CURRENT TIME STEP:      84     ITERATIONS:       9

 -----------------------------------------------------------------------------------

   CUMULATIVE VOLUMES               L**3   RATES FOR THIS TIME STEP           L**3/T
   ------------------                      ------------------------

                                     IN                                         IN
                                     --                                         --
        PRECIPITATION =        4516757.54          PRECIPITATION =                  
           STREAMFLOW =                               STREAMFLOW =                  
     GW BOUNDARY FLOW =                         GW BOUNDARY FLOW =                  


                                    OUT                                        OUT
                                    ---                                        ---
   EVAPOTRANSPIRATION =        1746658.28     EVAPOTRANSPIRATION =          35140.32
           STREAMFLOW =         975520.12             STREAMFLOW =          30481.54
     GW BOUNDARY FLOW =          54532.18       GW BOUNDARY FLOW =            651.94

   INFLOWS - OUTFLOWS =        1740046.96     INFLOWS - OUTFLOWS =         -66273.80
             --------                                   --------

 TOTAL STORAGE CHANGE =        1746560.19         STORAGE CHANGE =         -66229.95
       --------------                             --------------
         LAND SURFACE =        1433268.50           LAND SURFACE =         -48191.47
            SOIL ZONE =        1993565.05              SOIL ZONE =          -8133.39
     UNSATURATED ZONE =       -1342938.98       UNSATURATED ZONE =          -5275.00
       SATURATED ZONE =        -337334.37         SATURATED ZONE =          -4630.09

 OVERALL BUDGET ERROR =          -6513.23           BUDGET ERROR =            -43.85


  PERCENT DISCREPANCY =             -0.14    PERCENT DISCREPANCY =             -0.07



1
 SUMMARY VOLUMETRIC BUDGET FOR GSFLOW 
 DATE: 12 30 1980              CUMULATIVE TIME STEP:      91
 MODFLOW STRESS PERIOD      2     CURRENT TIME STEP:      91     ITERATIONS:      11

 -----------------------------------------------------------------------------------

   CUMULATIVE VOLUMES               L**3   RATES FOR THIS TIME STEP           L**3/T
   ------------------                      ------------------------

                                     IN                                         IN
                                     --                                         --
        PRECIPITATION =        4516757.54          PRECIPITATION =                  
           STREAMFLOW =                               STREAMFLOW =                  
     GW BOUNDARY FLOW =                         GW BOUNDARY FLOW =                  


                                    OUT                                        OUT
                                    ---                                        ---
   EVAPOTRANSPIRATION =        2107290.78     EVAPOTRANSPIRATION =          45887.78
           STREAMFLOW =        1224170.00             STREAMFLOW =          27637.87
     GW BOUNDARY FLOW =          59099.17       GW BOUNDARY FLOW =            652.41

   INFLOWS - OUTFLOWS =        1126197.58     INFLOWS - OUTFLOWS =         -74178.06
             --------                                   --------

 TOTAL STORAGE CHANGE =        1132888.95         STORAGE CHANGE =         -74157.51
       --------------                             --------------
         LAND SURFACE =         641159.81           LAND SURFACE =         -40370.18
            SOIL ZONE =        2204237.76              SOIL ZONE =         -24675.96
     UNSATURATED ZONE =       -1350483.13       UNSATURATED ZONE =          -4989.62
       SATURATED ZONE =        -362025.49         SATURATED ZONE =          -4121.75

 OVERALL BUDGET ERROR =          -6691.37           BUDGET ERROR =            -20.56


  PERCENT DISCREPANCY =             -0.15    PERCENT DISCREPANCY =             -0.03



1
 SUMMARY VOLUMETRIC BUDGET FOR GSFLOW 
 DATE: 01 06 1981              CUMULATIVE TIME STEP:      98
 MODFLOW STRESS PERIOD      2     CURRENT TIME STEP:      98     ITERATIONS:       8

 -----------------------------------------------------------------------------------

   CUMULATIVE VOLUMES               L**3   RATES FOR THIS TIME STEP           L**3/T
   ------------------                      ------------------------

                                     IN                                         IN
                                     --                                         --
        PRECIPITATION =        5004445.43          PRECIPITATION =                  
           STREAMFLOW =                               STREAMFLOW =                  
     GW BOUNDARY FLOW =                         GW BOUNDARY FLOW =                  


                                    OUT                                        OUT
                                    ---                                        ---
   EVAPOTRANSPIRATION =        2335215.53     EVAPOTRANSPIRATION =          21388.78
           STREAMFLOW =        1379787.02             STREAMFLOW =          21366.17
     GW BOUNDARY FLOW =          63660.95       GW BOUNDARY FLOW =            651.28

   INFLOWS - OUTFLOWS =        1225781.92     INFLOWS - OUTFLOWS =         -43406.22
             --------                                   --------

 TOTAL STORAGE CHANGE =        1232679.22         STORAGE CHANGE =         -43371.32
       --------------                             --------------
         LAND SURFACE =         837080.27           LAND SURFACE =         -30417.06
            SOIL ZONE =        2210220.78              SOIL ZONE =           2611.45
     UNSATURATED ZONE =       -1415369.42       UNSATURATED ZONE =          -9919.82
       SATURATED ZONE =        -399252.42         SATURATED ZONE =          -5645.88

 OVERALL BUDGET ERROR =          -6897.29           BUDGET ERROR =            -34.90


  PERCENT DISCREPANCY =             -0.14    PERCENT DISCREPANCY =             -0.08



1
 SUMMARY VOLUMETRIC BUDGET FOR GSFLOW 
 DATE: 01 13 1981              CUMULATIVE TIME STEP:     105
 MODFLOW STRESS PERIOD      2     CURRENT TIME STEP:     105     ITERATIONS:       7

 -----------------------------------------------------------------------------------

   CUMULATIVE VOLUMES               L**3   RATES FOR THIS TIME STEP           L**3/T
   ------------------                      ------------------------

                                     IN                                         IN
                                     --                                         --
        PRECIPITATION =        5004445.43          PRECIPITATION =                  
           STREAMFLOW =                               STREAMFLOW =                  
     GW BOUNDARY FLOW =                         GW BOUNDARY FLOW =                  


                                    OUT                                        OUT
                                    ---                                        ---
   EVAPOTRANSPIRATION =        2552725.61     EVAPOTRANSPIRATION =          44453.93
           STREAMFLOW =        1528734.50             STREAMFLOW =          20150.00
     GW BOUNDARY FLOW =          68218.25       GW BOUNDARY FLOW =            650.86

   INFLOWS - OUTFLOWS =         854767.07     INFLOWS - OUTFLOWS =         -65254.78
             --------                                   --------

 TOTAL STORAGE CHANGE =         862043.37         STORAGE CHANGE =         -65188.48
       --------------                             --------------
         LAND SURFACE =         626702.00           LAND SURFACE =         -38991.59
            SOIL ZONE =        2156516.87              SOIL ZONE =         -10593.28
     UNSATURATED ZONE =       -1479191.10       UNSATURATED ZONE =          -9121.50
       SATURATED ZONE =        -441984.40         SATURATED ZONE =          -6482.11

 OVERALL BUDGET ERROR =          -7276.30           BUDGET ERROR =            -66.30


  PERCENT DISCREPANCY =             -0.15    PERCENT DISCREPANCY =             -0.10



1
 SUMMARY VOLUMETRIC BUDGET FOR GSFLOW 
 DATE: 01 20 1981              CUMULATIVE TIME STEP:     112
 MODFLOW STRESS PERIOD      2     CURRENT TIME STEP:     112     ITERATIONS:       7

 -----------------------------------------------------------------------------------

   CUMULATIVE VOLUMES               L**3   RATES FOR THIS TIME STEP           L**3/T
   ------------------                      ------------------------

                                     IN                                         IN
                                     --                                         --
        PRECIPITATION =        5170466.84          PRECIPITATION =          41505.35
           STREAMFLOW =                               STREAMFLOW =                  
     GW BOUNDARY FLOW =                         GW BOUNDARY FLOW =                  


                                    OUT                                        OUT
                                    ---                                        ---
   EVAPOTRANSPIRATION =        2833974.64     EVAPOTRANSPIRATION =          34835.22
           STREAMFLOW =        1671320.18             STREAMFLOW =          20267.60
     GW BOUNDARY FLOW =          72773.21       GW BOUNDARY FLOW =            650.67

   INFLOWS - OUTFLOWS =         592398.83     INFLOWS - OUTFLOWS =         -14248.13
             --------                                   --------

 TOTAL STORAGE CHANGE =         600070.15         STORAGE CHANGE =         -14183.82
       --------------                             --------------
         LAND SURFACE =         436285.42           LAND SURFACE =           4326.68
            SOIL ZONE =        2159454.94              SOIL ZONE =         -10247.25
     UNSATURATED ZONE =       -1509839.42       UNSATURATED ZONE =          -1779.71
       SATURATED ZONE =        -485830.79         SATURATED ZONE =          -6483.53

 OVERALL BUDGET ERROR =          -7671.33           BUDGET ERROR =            -64.32


  PERCENT DISCREPANCY =             -0.15    PERCENT DISCREPANCY =             -0.12



1
 SUMMARY VOLUMETRIC BUDGET FOR GSFLOW 
 DATE: 01 27 1981              CUMULATIVE TIME STEP:     119
 MODFLOW STRESS PERIOD      2     CURRENT TIME STEP:     119     ITERATIONS:       9

 -----------------------------------------------------------------------------------

   CUMULATIVE VOLUMES               L**3   RATES FOR THIS TIME STEP           L**3/T
   ------------------                      ------------------------

                                     IN                                         IN
                                     --                                         --
        PRECIPITATION =        8646540.08          PRECIPITATION =        2936503.63
           STREAMFLOW =                               STREAMFLOW =                  
     GW BOUNDARY FLOW =                         GW BOUNDARY FLOW =                  


                                    OUT                                        OUT
                                    ---                                        ---
   EVAPOTRANSPIRATION =        3067740.72     EVAPOTRANSPIRATION =          13120.97
           STREAMFLOW =        1817724.73             STREAMFLOW =          18748.09
     GW BOUNDARY FLOW =          77327.70       GW BOUNDARY FLOW =            650.46

   INFLOWS - OUTFLOWS =        3683746.92     INFLOWS - OUTFLOWS =        2903984.12
             --------                                   --------

 TOTAL STORAGE CHANGE =        3691606.85         STORAGE CHANGE =        2904011.08
       --------------                             --------------
         LAND SURFACE =        3540180.85           LAND SURFACE =        2923352.24
            SOIL ZONE =        2180480.84              SOIL ZONE =          -7865.61
     UNSATURATED ZONE =       -1498687.16       UNSATURATED ZONE =          -4732.97
       SATURATED ZONE =        -530367.69         SATURATED ZONE =          -6742.59

 OVERALL BUDGET ERROR =          -7859.93           BUDGET ERROR =            -26.97


  PERCENT DISCREPANCY =             -0.09    PERCENT DISCREPANCY =             -0.00



1
 SUMMARY VOLUMETRIC BUDGET FOR GSFLOW 
 DATE: 02 03 1981              CUMULATIVE TIME STEP:     126
 MODFLOW STRESS PERIOD      2     CURRENT TIME STEP:     126     ITERATIONS:       9

 -----------------------------------------------------------------------------------

   CUMULATIVE VOLUMES               L**3   RATES FOR THIS TIME STEP           L**3/T
   ------------------                      ------------------------

                                     IN                                         IN
                                     --                                         --
        PRECIPITATION =        1.1739D+07          PRECIPITATION =                  
           STREAMFLOW =                               STREAMFLOW =                  
     GW BOUNDARY FLOW =                         GW BOUNDARY FLOW =                  


                                    OUT                                        OUT
                                    ---                                        ---
   EVAPOTRANSPIRATION =        3104253.76     EVAPOTRANSPIRATION =           6975.48
           STREAMFLOW =        1944740.63             STREAMFLOW =          18015.82
     GW BOUNDARY FLOW =          81879.89       GW BOUNDARY FLOW =            650.26

   INFLOWS - OUTFLOWS =        6607814.49     INFLOWS - OUTFLOWS =         -25641.56
             --------                                   --------

 TOTAL STORAGE CHANGE =        6615823.46         STORAGE CHANGE =         -25612.06
       --------------                             --------------
         LAND SURFACE =        6595816.50           LAND SURFACE =          -6975.48
            SOIL ZONE =        2169017.32              SOIL ZONE =            403.82
     UNSATURATED ZONE =       -1567534.32       UNSATURATED ZONE =         -11400.79
       SATURATED ZONE =        -581476.05         SATURATED ZONE =          -7639.60

 OVERALL BUDGET ERROR =          -8008.97           BUDGET ERROR =            -29.51


  PERCENT DISCREPANCY =             -0.07    PERCENT DISCREPANCY =             -0.12



1
 SUMMARY VOLUMETRIC BUDGET FOR GSFLOW 
 DATE: 02 10 1981              CUMULATIVE TIME STEP:     133
 MODFLOW STRESS PERIOD      2     CURRENT TIME STEP:     133     ITERATIONS:       7

 -----------------------------------------------------------------------------------

   CUMULATIVE VOLUMES               L**3   RATES FOR THIS TIME STEP           L**3/T
   ------------------                      ------------------------

                                     IN                                         IN
                                     --                                         --
        PRECIPITATION =        1.1838D+07          PRECIPITATION =                  
           STREAMFLOW =                               STREAMFLOW =                  
     GW BOUNDARY FLOW =                         GW BOUNDARY FLOW =                  


                                    OUT                                        OUT
                                    ---                                        ---
   EVAPOTRANSPIRATION =        3229654.83     EVAPOTRANSPIRATION =          32880.06
           STREAMFLOW =        2071072.80             STREAMFLOW =          18068.49
     GW BOUNDARY FLOW =          86431.70       GW BOUNDARY FLOW =            650.25

   INFLOWS - OUTFLOWS =        6451093.94     INFLOWS - OUTFLOWS =         -51598.79
             --------                                   --------

 TOTAL STORAGE CHANGE =        6459430.34         STORAGE CHANGE =         -51528.57
       --------------                             --------------
         LAND SURFACE =        6569979.95           LAND SURFACE =         -32880.06
            SOIL ZONE =        2173175.97              SOIL ZONE =            580.01
     UNSATURATED ZONE =       -1646068.52       UNSATURATED ZONE =         -10860.12
       SATURATED ZONE =        -637657.06         SATURATED ZONE =          -8368.39

 OVERALL BUDGET ERROR =          -8336.40           BUDGET ERROR =            -70.22


  PERCENT DISCREPANCY =             -0.07    PERCENT DISCREPANCY =             -0.14



1
 SUMMARY VOLUMETRIC BUDGET FOR GSFLOW 
 DATE: 02 17 1981              CUMULATIVE TIME STEP:     140
 MODFLOW STRESS PERIOD      2     CURRENT TIME STEP:     140     ITERATIONS:      14

 -----------------------------------------------------------------------------------

   CUMULATIVE VOLUMES               L**3   RATES FOR THIS TIME STEP           L**3/T
   ------------------                      ------------------------

                                     IN                                         IN
                                     --                                         --
        PRECIPITATION =        1.2765D+07          PRECIPITATION =          68929.28
           STREAMFLOW =                               STREAMFLOW =                  
     GW BOUNDARY FLOW =                         GW BOUNDARY FLOW =                  


                                    OUT                                        OUT
                                    ---                                        ---
   EVAPOTRANSPIRATION =        3567752.62     EVAPOTRANSPIRATION =          68607.56
           STREAMFLOW =        2616825.25             STREAMFLOW =         125643.22
     GW BOUNDARY FLOW =          91005.71       GW BOUNDARY FLOW =            656.88

   INFLOWS - OUTFLOWS =        6489385.52     INFLOWS - OUTFLOWS =        -125978.38
             --------                                   --------

 TOTAL STORAGE CHANGE =        6497991.21         STORAGE CHANGE =        -125960.69
       --------------                             --------------
         LAND SURFACE =        5590061.11           LAND SURFACE =        -278671.93
            SOIL ZONE =        2961606.74              SOIL ZONE =          72158.89
     UNSATURATED ZONE =       -1400359.09       UNSATURATED ZONE =          77963.69
       SATURATED ZONE =        -653317.55         SATURATED ZONE =           2588.66

 OVERALL BUDGET ERROR =          -8605.69           BUDGET ERROR =            -17.69


  PERCENT DISCREPANCY =             -0.07    PERCENT DISCREPANCY =             -0.01



1
 SUMMARY VOLUMETRIC BUDGET FOR GSFLOW 
 DATE: 02 24 1981              CUMULATIVE TIME STEP:     147
 MODFLOW STRESS PERIOD      2     CURRENT TIME STEP:     147     ITERATIONS:      14

 -----------------------------------------------------------------------------------

   CUMULATIVE VOLUMES               L**3   RATES FOR THIS TIME STEP           L**3/T
   ------------------                      ------------------------

                                     IN                                         IN
                                     --                                         --
        PRECIPITATION =        1.3179D+07          PRECIPITATION =         344646.37
           STREAMFLOW =                               STREAMFLOW =                  
     GW BOUNDARY FLOW =                         GW BOUNDARY FLOW =                  


                                    OUT                                        OUT
                                    ---                                        ---
   EVAPOTRANSPIRATION =        3909074.21     EVAPOTRANSPIRATION =          18832.76
           STREAMFLOW =        3176929.89             STREAMFLOW =          52182.71
     GW BOUNDARY FLOW =          95599.00       GW BOUNDARY FLOW =            655.16

   INFLOWS - OUTFLOWS =        5996941.66     INFLOWS - OUTFLOWS =         272975.74
             --------                                   --------

 TOTAL STORAGE CHANGE =        6005512.58         STORAGE CHANGE =         272967.00
       --------------                             --------------
         LAND SURFACE =        4984244.21           LAND SURFACE =         286368.61
            SOIL ZONE =        2698154.17              SOIL ZONE =         -43302.41
     UNSATURATED ZONE =       -1047871.36       UNSATURATED ZONE =          27490.04
       SATURATED ZONE =        -629014.45         SATURATED ZONE =           2410.76

 OVERALL BUDGET ERROR =          -8570.92           BUDGET ERROR =              8.74


  PERCENT DISCREPANCY =             -0.07    PERCENT DISCREPANCY =              0.00



1
 SUMMARY VOLUMETRIC BUDGET FOR GSFLOW 
 DATE: 03 03 1981              CUMULATIVE TIME STEP:     154
 MODFLOW STRESS PERIOD      2     CURRENT TIME STEP:     154     ITERATIONS:      11

 -----------------------------------------------------------------------------------

   CUMULATIVE VOLUMES               L**3   RATES FOR THIS TIME STEP           L**3/T
   ------------------                      ------------------------

                                     IN                                         IN
                                     --                                         --
        PRECIPITATION =        1.3447D+07          PRECIPITATION =                  
           STREAMFLOW =                               STREAMFLOW =                  
     GW BOUNDARY FLOW =                         GW BOUNDARY FLOW =                  


                                    OUT                                        OUT
                                    ---                                        ---
   EVAPOTRANSPIRATION =        4069756.94     EVAPOTRANSPIRATION =          45353.75
           STREAMFLOW =        3401300.86             STREAMFLOW =          27808.64
     GW BOUNDARY FLOW =         100171.97       GW BOUNDARY FLOW =            652.32

   INFLOWS - OUTFLOWS =        5875373.27     INFLOWS - OUTFLOWS =         -73814.72
             --------                                   --------

 TOTAL STORAGE CHANGE =        5883822.39         STORAGE CHANGE =         -73833.59
       --------------                             --------------
         LAND SURFACE =        5068137.31           LAND SURFACE =         -66041.98
            SOIL ZONE =        2489666.92              SOIL ZONE =           2872.49
     UNSATURATED ZONE =       -1041369.54       UNSATURATED ZONE =          -8822.47
       SATURATED ZONE =        -632612.30         SATURATED ZONE =          -1841.63

 OVERALL BUDGET ERROR =          -8449.12           BUDGET ERROR =             18.88


  PERCENT DISCREPANCY =             -0.06    PERCENT DISCREPANCY =              0.03



1
 SUMMARY VOLUMETRIC BUDGET FOR GSFLOW 
 DATE: 03 10 1981              CUMULATIVE TIME STEP:     161
 MODFLOW STRESS PERIOD      2     CURRENT TIME STEP:     161     ITERATIONS:      11

 -----------------------------------------------------------------------------------

   CUMULATIVE VOLUMES               L**3   RATES FOR THIS TIME STEP           L**3/T
   ------------------                      ------------------------

                                     IN                                         IN
                                     --                                         --
        PRECIPITATION =        1.3493D+07          PRECIPITATION =                  
           STREAMFLOW =                               STREAMFLOW =                  
     GW BOUNDARY FLOW =                         GW BOUNDARY FLOW =                  


                                    OUT                                        OUT
                                    ---                                        ---
   EVAPOTRANSPIRATION =        4415546.52     EVAPOTRANSPIRATION =          72811.00
           STREAMFLOW =        3637629.57             STREAMFLOW =          43703.29
     GW BOUNDARY FLOW =         104738.08       GW BOUNDARY FLOW =            652.94

   INFLOWS - OUTFLOWS =        5335026.98     INFLOWS - OUTFLOWS =        -117167.23
             --------                                   --------

 TOTAL STORAGE CHANGE =        5343402.90         STORAGE CHANGE =        -117187.74
       --------------                             --------------
         LAND SURFACE =        4391652.97           LAND SURFACE =        -169089.79
            SOIL ZONE =        2603628.39              SOIL ZONE =          28981.59
     UNSATURATED ZONE =       -1008316.64       UNSATURATED ZONE =          23168.55
       SATURATED ZONE =        -643561.82         SATURATED ZONE =           -248.09

 OVERALL BUDGET ERROR =          -8375.92           BUDGET ERROR =             20.51


  PERCENT DISCREPANCY =             -0.06    PERCENT DISCREPANCY =              0.02



1
 SUMMARY VOLUMETRIC BUDGET FOR GSFLOW 
 DATE: 03 17 1981              CUMULATIVE TIME STEP:     168
 MODFLOW STRESS PERIOD      2     CURRENT TIME STEP:     168     ITERATIONS:       9

 -----------------------------------------------------------------------------------

   CUMULATIVE VOLUMES               L**3   RATES FOR THIS TIME STEP           L**3/T
   ------------------                      ------------------------

                                     IN                                         IN
                                     --                                         --
        PRECIPITATION =        1.3744D+07          PRECIPITATION =                  
           STREAMFLOW =                               STREAMFLOW =                  
     GW BOUNDARY FLOW =                         GW BOUNDARY FLOW =                  


                                    OUT                                        OUT
                                    ---                                        ---
   EVAPOTRANSPIRATION =        4783956.28     EVAPOTRANSPIRATION =          40234.36
           STREAMFLOW =        3864977.70             STREAMFLOW =          24169.77
     GW BOUNDARY FLOW =         109305.41       GW BOUNDARY FLOW =            651.88

   INFLOWS - OUTFLOWS =        4986251.50     INFLOWS - OUTFLOWS =         -65056.02
             --------                                   --------

 TOTAL STORAGE CHANGE =        4994540.41         STORAGE CHANGE =         -65061.76
       --------------                             --------------
         LAND SURFACE =        4202420.68           LAND SURFACE =         -39897.13
            SOIL ZONE =        2438309.28              SOIL ZONE =          -5409.03
     UNSATURATED ZONE =        -987507.74       UNSATURATED ZONE =         -15783.11
       SATURATED ZONE =        -658681.81         SATURATED ZONE =          -3972.49

 OVERALL BUDGET ERROR =          -8288.91           BUDGET ERROR =              5.74


  PERCENT DISCREPANCY =             -0.06    PERCENT DISCREPANCY =              0.01



1
 SUMMARY VOLUMETRIC BUDGET FOR GSFLOW 
 DATE: 03 24 1981              CUMULATIVE TIME STEP:     175
 MODFLOW STRESS PERIOD      2     CURRENT TIME STEP:     175     ITERATIONS:       9

 -----------------------------------------------------------------------------------

   CUMULATIVE VOLUMES               L**3   RATES FOR THIS TIME STEP           L**3/T
   ------------------                      ------------------------

                                     IN                                         IN
                                     --                                         --
        PRECIPITATION =        1.4367D+07          PRECIPITATION =                  
           STREAMFLOW =                               STREAMFLOW =                  
     GW BOUNDARY FLOW =                         GW BOUNDARY FLOW =                  


                                    OUT                                        OUT
                                    ---                                        ---
   EVAPOTRANSPIRATION =        5139733.61     EVAPOTRANSPIRATION =          87428.11
           STREAMFLOW =        4040996.62             STREAMFLOW =          26843.70
     GW BOUNDARY FLOW =         113865.89       GW BOUNDARY FLOW =            651.46

   INFLOWS - OUTFLOWS =        5072149.40     INFLOWS - OUTFLOWS =        -114923.26
             --------                                   --------

 TOTAL STORAGE CHANGE =        5080470.12         STORAGE CHANGE =        -114926.58
       --------------                             --------------
         LAND SURFACE =        4477696.12           LAND SURFACE =         -65035.10
            SOIL ZONE =        2351092.24              SOIL ZONE =         -41078.47
     UNSATURATED ZONE =       -1058163.97       UNSATURATED ZONE =          -4271.08
       SATURATED ZONE =        -690154.28         SATURATED ZONE =          -4541.93

 OVERALL BUDGET ERROR =          -8320.72           BUDGET ERROR =              3.31


  PERCENT DISCREPANCY =             -0.06    PERCENT DISCREPANCY =              0.00



1
 SUMMARY VOLUMETRIC BUDGET FOR GSFLOW 
 DATE: 03 31 1981              CUMULATIVE TIME STEP:     182
 MODFLOW STRESS PERIOD      2     CURRENT TIME STEP:     182     ITERATIONS:      12

 -----------------------------------------------------------------------------------

   CUMULATIVE VOLUMES               L**3   RATES FOR THIS TIME STEP           L**3/T
   ------------------                      ------------------------

                                     IN                                         IN
                                     --                                         --
        PRECIPITATION =        1.5777D+07          PRECIPITATION =                  
           STREAMFLOW =                               STREAMFLOW =                  
     GW BOUNDARY FLOW =                         GW BOUNDARY FLOW =                  


                                    OUT                                        OUT
                                    ---                                        ---
   EVAPOTRANSPIRATION =        5569671.00     EVAPOTRANSPIRATION =          54090.27
           STREAMFLOW =        4550315.98             STREAMFLOW =          37152.21
     GW BOUNDARY FLOW =         118447.95       GW BOUNDARY FLOW =            653.61

   INFLOWS - OUTFLOWS =        5538313.05     INFLOWS - OUTFLOWS =         -91896.09
             --------                                   --------

 TOTAL STORAGE CHANGE =        5546579.03         STORAGE CHANGE =         -91915.08
       --------------                             --------------
         LAND SURFACE =        4494242.72           LAND SURFACE =         -55488.75
            SOIL ZONE =        2547530.64              SOIL ZONE =         -41756.27
     UNSATURATED ZONE =        -813681.05       UNSATURATED ZONE =           5957.33
       SATURATED ZONE =        -681513.28         SATURATED ZONE =           -627.39

 OVERALL BUDGET ERROR =          -8265.99           BUDGET ERROR =             18.99


  PERCENT DISCREPANCY =             -0.05    PERCENT DISCREPANCY =              0.02



1
 SUMMARY VOLUMETRIC BUDGET FOR GSFLOW 
 DATE: 04 07 1981              CUMULATIVE TIME STEP:     189
 MODFLOW STRESS PERIOD      2     CURRENT TIME STEP:     189     ITERATIONS:      10

 -----------------------------------------------------------------------------------

   CUMULATIVE VOLUMES               L**3   RATES FOR THIS TIME STEP           L**3/T
   ------------------                      ------------------------

                                     IN                                         IN
                                     --                                         --
        PRECIPITATION =        1.6121D+07          PRECIPITATION =                  
           STREAMFLOW =                               STREAMFLOW =                  
     GW BOUNDARY FLOW =                         GW BOUNDARY FLOW =                  


                                    OUT                                        OUT
                                    ---                                        ---
   EVAPOTRANSPIRATION =        6195737.24     EVAPOTRANSPIRATION =         103845.38
           STREAMFLOW =        4868937.58             STREAMFLOW =          43446.18
     GW BOUNDARY FLOW =         123023.30       GW BOUNDARY FLOW =            653.74

   INFLOWS - OUTFLOWS =        4933769.49     INFLOWS - OUTFLOWS =        -147945.30
             --------                                   --------

 TOTAL STORAGE CHANGE =        4941944.60         STORAGE CHANGE =        -147967.10
       --------------                             --------------
         LAND SURFACE =        3870170.36           LAND SURFACE =        -138668.80
            SOIL ZONE =        2478830.29              SOIL ZONE =         -20354.00
     UNSATURATED ZONE =        -729806.94       UNSATURATED ZONE =          10710.38
       SATURATED ZONE =        -677249.12         SATURATED ZONE =            345.31

 OVERALL BUDGET ERROR =          -8175.11           BUDGET ERROR =             21.79


  PERCENT DISCREPANCY =             -0.05    PERCENT DISCREPANCY =              0.01



1
 SUMMARY VOLUMETRIC BUDGET FOR GSFLOW 
 DATE: 04 14 1981              CUMULATIVE TIME STEP:     196
 MODFLOW STRESS PERIOD      2     CURRENT TIME STEP:     196     ITERATIONS:      13

 -----------------------------------------------------------------------------------

   CUMULATIVE VOLUMES               L**3   RATES FOR THIS TIME STEP           L**3/T
   ------------------                      ------------------------

                                     IN                                         IN
                                     --                                         --
        PRECIPITATION =        1.6121D+07          PRECIPITATION =                  
           STREAMFLOW =                               STREAMFLOW =                  
     GW BOUNDARY FLOW =                         GW BOUNDARY FLOW =                  


                                    OUT                                        OUT
                                    ---                                        ---
   EVAPOTRANSPIRATION =        7106426.76     EVAPOTRANSPIRATION =         191911.71
           STREAMFLOW =        5196480.96             STREAMFLOW =          55528.04
     GW BOUNDARY FLOW =         127598.73       GW BOUNDARY FLOW =            653.68

   INFLOWS - OUTFLOWS =        3690961.15     INFLOWS - OUTFLOWS =        -248093.44
             --------                                   --------

 TOTAL STORAGE CHANGE =        3699006.87         STORAGE CHANGE =        -248101.32
       --------------                             --------------
         LAND SURFACE =        2621455.97           LAND SURFACE =        -253007.68
            SOIL ZONE =        2387287.20              SOIL ZONE =         -16805.31
     UNSATURATED ZONE =        -639471.19       UNSATURATED ZONE =          19487.23
       SATURATED ZONE =        -670265.11         SATURATED ZONE =           2224.44

 OVERALL BUDGET ERROR =          -8045.71           BUDGET ERROR =              7.88


  PERCENT DISCREPANCY =             -0.05    PERCENT DISCREPANCY =              0.00



1
 SUMMARY VOLUMETRIC BUDGET FOR GSFLOW 
 DATE: 04 21 1981              CUMULATIVE TIME STEP:     203
 MODFLOW STRESS PERIOD      2     CURRENT TIME STEP:     203     ITERATIONS:      12

 -----------------------------------------------------------------------------------

   CUMULATIVE VOLUMES               L**3   RATES FOR THIS TIME STEP           L**3/T
   ------------------                      ------------------------

                                     IN                                         IN
                                     --                                         --
        PRECIPITATION =        1.6310D+07          PRECIPITATION =                  
           STREAMFLOW =                               STREAMFLOW =                  
     GW BOUNDARY FLOW =                         GW BOUNDARY FLOW =                  


                                    OUT                                        OUT
                                    ---                                        ---
   EVAPOTRANSPIRATION =        8178390.64     EVAPOTRANSPIRATION =         152247.91
           STREAMFLOW =        5536027.20             STREAMFLOW =          45836.42
     GW BOUNDARY FLOW =         132170.23       GW BOUNDARY FLOW =            652.64

   INFLOWS - OUTFLOWS =        2463654.58     INFLOWS - OUTFLOWS =        -198736.98
             --------                                   --------

 TOTAL STORAGE CHANGE =        2471585.64         STORAGE CHANGE =        -198767.79
       --------------                             --------------
         LAND SURFACE =        1440926.25           LAND SURFACE =        -121359.42
            SOIL ZONE =        2205509.46              SOIL ZONE =         -97183.10
     UNSATURATED ZONE =        -522290.70       UNSATURATED ZONE =          16841.53
       SATURATED ZONE =        -652559.38         SATURATED ZONE =           2933.19

 OVERALL BUDGET ERROR =          -7931.06           BUDGET ERROR =             30.82


  PERCENT DISCREPANCY =             -0.05    PERCENT DISCREPANCY =              0.02



1
 SUMMARY VOLUMETRIC BUDGET FOR GSFLOW 
 DATE: 04 28 1981              CUMULATIVE TIME STEP:     210
 MODFLOW STRESS PERIOD      2     CURRENT TIME STEP:     210     ITERATIONS:      14

 -----------------------------------------------------------------------------------

   CUMULATIVE VOLUMES               L**3   RATES FOR THIS TIME STEP           L**3/T
   ------------------                      ------------------------

                                     IN                                         IN
                                     --                                         --
        PRECIPITATION =        1.6515D+07          PRECIPITATION =                  
           STREAMFLOW =                               STREAMFLOW =                  
     GW BOUNDARY FLOW =                         GW BOUNDARY FLOW =                  


                                    OUT                                        OUT
                                    ---                                        ---
   EVAPOTRANSPIRATION =        9416888.14     EVAPOTRANSPIRATION =         200406.07
           STREAMFLOW =        5748391.91             STREAMFLOW =          24700.37
     GW BOUNDARY FLOW =         136729.76       GW BOUNDARY FLOW =            650.48

   INFLOWS - OUTFLOWS =        1213423.08     INFLOWS - OUTFLOWS =        -225756.92
             --------                                   --------

 TOTAL STORAGE CHANGE =        1221252.41         STORAGE CHANGE =        -225771.13
       --------------                             --------------
         LAND SURFACE =         691530.95           LAND SURFACE =         -83509.90
            SOIL ZONE =        1695333.83              SOIL ZONE =        -138438.09
     UNSATURATED ZONE =        -520991.79       UNSATURATED ZONE =          -4120.28
       SATURATED ZONE =        -644620.58         SATURATED ZONE =            297.14

 OVERALL BUDGET ERROR =          -7829.33           BUDGET ERROR =             14.22


  PERCENT DISCREPANCY =             -0.05    PERCENT DISCREPANCY =              0.01



1
 SUMMARY VOLUMETRIC BUDGET FOR GSFLOW 
 DATE: 05 05 1981              CUMULATIVE TIME STEP:     217
 MODFLOW STRESS PERIOD      2     CURRENT TIME STEP:     217     ITERATIONS:      13

 -----------------------------------------------------------------------------------

   CUMULATIVE VOLUMES               L**3   RATES FOR THIS TIME STEP           L**3/T
   ------------------                      ------------------------

                                     IN                                         IN
                                     --                                         --
        PRECIPITATION =        1.6515D+07          PRECIPITATION =                  
           STREAMFLOW =                               STREAMFLOW =                  
     GW BOUNDARY FLOW =                         GW BOUNDARY FLOW =                  


                                    OUT                                        OUT
                                    ---                                        ---
   EVAPOTRANSPIRATION =        1.0268D+07     EVAPOTRANSPIRATION =          47821.34
           STREAMFLOW =        5854430.27             STREAMFLOW =          10871.78
     GW BOUNDARY FLOW =         141276.21       GW BOUNDARY FLOW =            648.81

   INFLOWS - OUTFLOWS =         252027.84     INFLOWS - OUTFLOWS =         -59341.93
             --------                                   --------

 TOTAL STORAGE CHANGE =         259791.57         STORAGE CHANGE =         -59347.57
       --------------                             --------------
         LAND SURFACE =         347350.76           LAND SURFACE =         -17502.06
            SOIL ZONE =        1187496.42              SOIL ZONE =         -23028.16
     UNSATURATED ZONE =        -617456.91       UNSATURATED ZONE =         -15760.42
       SATURATED ZONE =        -657598.70         SATURATED ZONE =          -3056.94

 OVERALL BUDGET ERROR =          -7763.73           BUDGET ERROR =              5.64


  PERCENT DISCREPANCY =             -0.05    PERCENT DISCREPANCY =              0.01



1
 SUMMARY VOLUMETRIC BUDGET FOR GSFLOW 
 DATE: 05 12 1981              CUMULATIVE TIME STEP:     224
 MODFLOW STRESS PERIOD      2     CURRENT TIME STEP:     224     ITERATIONS:      18

 -----------------------------------------------------------------------------------

   CUMULATIVE VOLUMES               L**3   RATES FOR THIS TIME STEP           L**3/T
   ------------------                      ------------------------

                                     IN                                         IN
                                     --                                         --
        PRECIPITATION =        1.6515D+07          PRECIPITATION =                  
           STREAMFLOW =                               STREAMFLOW =                  
     GW BOUNDARY FLOW =                         GW BOUNDARY FLOW =                  


                                    OUT                                        OUT
                                    ---                                        ---
   EVAPOTRANSPIRATION =        1.0759D+07     EVAPOTRANSPIRATION =          90820.00
           STREAMFLOW =        5925577.49             STREAMFLOW =          10489.01
     GW BOUNDARY FLOW =         145814.91       GW BOUNDARY FLOW =            648.22

   INFLOWS - OUTFLOWS =        -314831.99     INFLOWS - OUTFLOWS =        -101957.24
             --------                                   --------

 TOTAL STORAGE CHANGE =        -307067.00         STORAGE CHANGE =        -101953.19
       --------------                             --------------
         LAND SURFACE =         198678.97           LAND SURFACE =         -25500.84
            SOIL ZONE =         903965.24              SOIL ZONE =         -57629.68
     UNSATURATED ZONE =        -722472.55       UNSATURATED ZONE =         -13422.02
       SATURATED ZONE =        -687238.67         SATURATED ZONE =          -5400.65

 OVERALL BUDGET ERROR =          -7764.99           BUDGET ERROR =             -4.05


  PERCENT DISCREPANCY =             -0.05    PERCENT DISCREPANCY =             -0.00



1
 SUMMARY VOLUMETRIC BUDGET FOR GSFLOW 
 DATE: 05 19 1981              CUMULATIVE TIME STEP:     231
 MODFLOW STRESS PERIOD      2     CURRENT TIME STEP:     231     ITERATIONS:      17

 -----------------------------------------------------------------------------------

   CUMULATIVE VOLUMES               L**3   RATES FOR THIS TIME STEP           L**3/T
   ------------------                      ------------------------

                                     IN                                         IN
                                     --                                         --
        PRECIPITATION =        1.7837D+07          PRECIPITATION =         169045.43
           STREAMFLOW =                               STREAMFLOW =                  
     GW BOUNDARY FLOW =                         GW BOUNDARY FLOW =                  


                                    OUT                                        OUT
                                    ---                                        ---
   EVAPOTRANSPIRATION =        1.1102D+07     EVAPOTRANSPIRATION =          32129.65
           STREAMFLOW =        6056723.80             STREAMFLOW =          27356.94
     GW BOUNDARY FLOW =         150354.46       GW BOUNDARY FLOW =            649.57

   INFLOWS - OUTFLOWS =         527726.38     INFLOWS - OUTFLOWS =         108909.26
             --------                                   --------

 TOTAL STORAGE CHANGE =         535498.47         STORAGE CHANGE =         108902.69
       --------------                             --------------
         LAND SURFACE =         167097.84           LAND SURFACE =           4534.24
            SOIL ZONE =        1884690.97              SOIL ZONE =         110155.26
     UNSATURATED ZONE =        -790093.38       UNSATURATED ZONE =           -535.88
       SATURATED ZONE =        -726196.96         SATURATED ZONE =          -5250.94

 OVERALL BUDGET ERROR =          -7772.09           BUDGET ERROR =              6.57


  PERCENT DISCREPANCY =             -0.04    PERCENT DISCREPANCY =              0.00



1
 SUMMARY VOLUMETRIC BUDGET FOR GSFLOW 
 DATE: 05 26 1981              CUMULATIVE TIME STEP:     238
 MODFLOW STRESS PERIOD      2     CURRENT TIME STEP:     238     ITERATIONS:      13

 -----------------------------------------------------------------------------------

   CUMULATIVE VOLUMES               L**3   RATES FOR THIS TIME STEP           L**3/T
   ------------------                      ------------------------

                                     IN                                         IN
                                     --                                         --
        PRECIPITATION =        1.8252D+07          PRECIPITATION =         284303.67
           STREAMFLOW =                               STREAMFLOW =                  
     GW BOUNDARY FLOW =                         GW BOUNDARY FLOW =                  


                                    OUT                                        OUT
                                    ---                                        ---
   EVAPOTRANSPIRATION =        1.1924D+07     EVAPOTRANSPIRATION =         132233.26
           STREAMFLOW =        6170289.06             STREAMFLOW =          19496.41
     GW BOUNDARY FLOW =         154895.95       GW BOUNDARY FLOW =            648.55

   INFLOWS - OUTFLOWS =           2984.22     INFLOWS - OUTFLOWS =         131925.46
             --------                                   --------

 TOTAL STORAGE CHANGE =          10764.48         STORAGE CHANGE =         131924.92
       --------------                             --------------
         LAND SURFACE =          96880.50           LAND SURFACE =          -7049.94
            SOIL ZONE =        1534315.07              SOIL ZONE =         156322.12
     UNSATURATED ZONE =        -847149.46       UNSATURATED ZONE =         -10693.45
       SATURATED ZONE =        -773281.62         SATURATED ZONE =          -6653.81

 OVERALL BUDGET ERROR =          -7780.26           BUDGET ERROR =              0.54


  PERCENT DISCREPANCY =             -0.04    PERCENT DISCREPANCY =              0.00



1
 SUMMARY VOLUMETRIC BUDGET FOR GSFLOW 
 DATE: 06 02 1981              CUMULATIVE TIME STEP:     245
 MODFLOW STRESS PERIOD      2     CURRENT TIME STEP:     245     ITERATIONS:      14

 -----------------------------------------------------------------------------------

   CUMULATIVE VOLUMES               L**3   RATES FOR THIS TIME STEP           L**3/T
   ------------------                      ------------------------

                                     IN                                         IN
                                     --                                         --
        PRECIPITATION =        1.8318D+07          PRECIPITATION =          50869.96
           STREAMFLOW =                               STREAMFLOW =                  
     GW BOUNDARY FLOW =                         GW BOUNDARY FLOW =                  


                                    OUT                                        OUT
                                    ---                                        ---
   EVAPOTRANSPIRATION =        1.2720D+07     EVAPOTRANSPIRATION =          69335.61
           STREAMFLOW =        6241112.49             STREAMFLOW =           7792.76
     GW BOUNDARY FLOW =         159431.32       GW BOUNDARY FLOW =            647.45

   INFLOWS - OUTFLOWS =        -802769.96     INFLOWS - OUTFLOWS =         -26905.86
             --------                                   --------

 TOTAL STORAGE CHANGE =        -794973.11         STORAGE CHANGE =         -26901.06
       --------------                             --------------
         LAND SURFACE =          61812.20           LAND SURFACE =          30830.75
            SOIL ZONE =         908218.70              SOIL ZONE =         -35679.33
     UNSATURATED ZONE =        -935097.99       UNSATURATED ZONE =         -13669.46
       SATURATED ZONE =        -829906.03         SATURATED ZONE =          -8383.01

 OVERALL BUDGET ERROR =          -7796.85           BUDGET ERROR =             -4.80


  PERCENT DISCREPANCY =             -0.04    PERCENT DISCREPANCY =             -0.01



1
 SUMMARY VOLUMETRIC BUDGET FOR GSFLOW 
 DATE: 06 09 1981              CUMULATIVE TIME STEP:     252
 MODFLOW STRESS PERIOD      2     CURRENT TIME STEP:     252     ITERATIONS:      13

 -----------------------------------------------------------------------------------

   CUMULATIVE VOLUMES               L**3   RATES FOR THIS TIME STEP           L**3/T
   ------------------                      ------------------------

                                     IN                                         IN
                                     --                                         --
        PRECIPITATION =        1.8318D+07          PRECIPITATION =                  
           STREAMFLOW =                               STREAMFLOW =                  
     GW BOUNDARY FLOW =                         GW BOUNDARY FLOW =                  


                                    OUT                                        OUT
                                    ---                                        ---
   EVAPOTRANSPIRATION =        1.3216D+07     EVAPOTRANSPIRATION =          51760.02
           STREAMFLOW =        6288994.36             STREAMFLOW =           6433.92
     GW BOUNDARY FLOW =         163961.28       GW BOUNDARY FLOW =            646.97

   INFLOWS - OUTFLOWS =       -1350776.24     INFLOWS - OUTFLOWS =         -58840.91
             --------                                   --------

 TOTAL STORAGE CHANGE =       -1342952.48         STORAGE CHANGE =         -58838.73
       --------------                             --------------
         LAND SURFACE =           8252.08           LAND SURFACE =          -1595.17
            SOIL ZONE =         569199.11              SOIL ZONE =         -35005.93
     UNSATURATED ZONE =       -1029212.33       UNSATURATED ZONE =         -13318.96
       SATURATED ZONE =        -891191.35         SATURATED ZONE =          -8918.67

 OVERALL BUDGET ERROR =          -7823.77           BUDGET ERROR =             -2.17


  PERCENT DISCREPANCY =             -0.04    PERCENT DISCREPANCY =             -0.00



1
 SUMMARY VOLUMETRIC BUDGET FOR GSFLOW 
 DATE: 06 16 1981              CUMULATIVE TIME STEP:     259
 MODFLOW STRESS PERIOD      2     CURRENT TIME STEP:     259     ITERATIONS:      17

 -----------------------------------------------------------------------------------

   CUMULATIVE VOLUMES               L**3   RATES FOR THIS TIME STEP           L**3/T
   ------------------                      ------------------------

                                     IN                                         IN
                                     --                                         --
        PRECIPITATION =        1.8318D+07          PRECIPITATION =                  
           STREAMFLOW =                               STREAMFLOW =                  
     GW BOUNDARY FLOW =                         GW BOUNDARY FLOW =                  


                                    OUT                                        OUT
                                    ---                                        ---
   EVAPOTRANSPIRATION =        1.3408D+07     EVAPOTRANSPIRATION =          45427.31
           STREAMFLOW =        6332730.31             STREAMFLOW =           6177.57
     GW BOUNDARY FLOW =         168489.11       GW BOUNDARY FLOW =            646.75

   INFLOWS - OUTFLOWS =       -1591386.57     INFLOWS - OUTFLOWS =         -52251.63
             --------                                   --------

 TOTAL STORAGE CHANGE =       -1583530.46         STORAGE CHANGE =         -52243.31
       --------------                             --------------
         LAND SURFACE =           3425.60           LAND SURFACE =           -943.52
            SOIL ZONE =         487805.14              SOIL ZONE =         -29390.56
     UNSATURATED ZONE =       -1120307.16       UNSATURATED ZONE =         -12778.39
       SATURATED ZONE =        -954454.04         SATURATED ZONE =          -9130.83

 OVERALL BUDGET ERROR =          -7856.11           BUDGET ERROR =             -8.32


  PERCENT DISCREPANCY =             -0.04    PERCENT DISCREPANCY =             -0.02



1
 SUMMARY VOLUMETRIC BUDGET FOR GSFLOW 
 DATE: 06 23 1981              CUMULATIVE TIME STEP:     266
 MODFLOW STRESS PERIOD      2     CURRENT TIME STEP:     266     ITERATIONS:      14

 -----------------------------------------------------------------------------------

   CUMULATIVE VOLUMES               L**3   RATES FOR THIS TIME STEP           L**3/T
   ------------------                      ------------------------

                                     IN                                         IN
                                     --                                         --
        PRECIPITATION =        1.8318D+07          PRECIPITATION =                  
           STREAMFLOW =                               STREAMFLOW =                  
     GW BOUNDARY FLOW =                         GW BOUNDARY FLOW =                  


                                    OUT                                        OUT
                                    ---                                        ---
   EVAPOTRANSPIRATION =        1.3708D+07     EVAPOTRANSPIRATION =          34949.17
           STREAMFLOW =        6374921.61             STREAMFLOW =           5948.59
     GW BOUNDARY FLOW =         173015.64       GW BOUNDARY FLOW =            646.57

   INFLOWS - OUTFLOWS =       -1937402.14     INFLOWS - OUTFLOWS =         -41544.33
             --------                                   --------

 TOTAL STORAGE CHANGE =       -1929518.29         STORAGE CHANGE =         -41545.60
       --------------                             --------------
         LAND SURFACE =                             LAND SURFACE =                  
            SOIL ZONE =         297469.93              SOIL ZONE =         -19913.66
     UNSATURATED ZONE =       -1206241.32       UNSATURATED ZONE =         -11812.61
       SATURATED ZONE =       -1020746.90         SATURATED ZONE =          -9819.33

 OVERALL BUDGET ERROR =          -7883.85           BUDGET ERROR =              1.26


  PERCENT DISCREPANCY =             -0.04    PERCENT DISCREPANCY =              0.00



1
 SUMMARY VOLUMETRIC BUDGET FOR GSFLOW 
 DATE: 06 30 1981              CUMULATIVE TIME STEP:     273
 MODFLOW STRESS PERIOD      2     CURRENT TIME STEP:     273     ITERATIONS:       9

 -----------------------------------------------------------------------------------

   CUMULATIVE VOLUMES               L**3   RATES FOR THIS TIME STEP           L**3/T
   ------------------                      ------------------------

                                     IN                                         IN
[...]
                                    ---                                        ---
   EVAPOTRANSPIRATION =        2.8351D+08     EVAPOTRANSPIRATION =          44944.23
           STREAMFLOW =        1.8523D+08             STREAMFLOW =           7027.61
     GW BOUNDARY FLOW =        3736428.20       GW BOUNDARY FLOW =            650.85

   INFLOWS - OUTFLOWS =       -7415325.52     INFLOWS - OUTFLOWS =         -52622.68
             --------                                   --------

 TOTAL STORAGE CHANGE =       -7242698.84         STORAGE CHANGE =         -52637.27
       --------------                             --------------
         LAND SURFACE =          84495.33           LAND SURFACE =          -4962.88
            SOIL ZONE =         278826.67              SOIL ZONE =         -25968.93
     UNSATURATED ZONE =        5093123.93       UNSATURATED ZONE =         -27687.51
       SATURATED ZONE =       -1.2699D+07         SATURATED ZONE =           5982.04

 OVERALL BUDGET ERROR =        -172626.68           BUDGET ERROR =             14.59


  PERCENT DISCREPANCY =             -0.04    PERCENT DISCREPANCY =              0.03



1
 SUMMARY VOLUMETRIC BUDGET FOR GSFLOW 
 DATE: 07 30 1996              CUMULATIVE TIME STEP:    5782
 MODFLOW STRESS PERIOD      2     CURRENT TIME STEP:    5782     ITERATIONS:      14

 -----------------------------------------------------------------------------------

   CUMULATIVE VOLUMES               L**3   RATES FOR THIS TIME STEP           L**3/T
   ------------------                      ------------------------

                                     IN                                         IN
                                     --                                         --
        PRECIPITATION =        4.6511D+08          PRECIPITATION =                  
           STREAMFLOW =                               STREAMFLOW =                  
     GW BOUNDARY FLOW =                         GW BOUNDARY FLOW =                  


                                    OUT                                        OUT
                                    ---                                        ---
   EVAPOTRANSPIRATION =        2.8378D+08     EVAPOTRANSPIRATION =          30217.40
           STREAMFLOW =        1.8527D+08             STREAMFLOW =           6871.35
     GW BOUNDARY FLOW =        3740982.54       GW BOUNDARY FLOW =            650.46

   INFLOWS - OUTFLOWS =       -7689450.75     INFLOWS - OUTFLOWS =         -37739.22
             --------                                   --------

 TOTAL STORAGE CHANGE =       -7516965.38         STORAGE CHANGE =         -37759.68
       --------------                             --------------
         LAND SURFACE =          55405.90           LAND SURFACE =          -3487.93
            SOIL ZONE =         184205.32              SOIL ZONE =         -12902.03
     UNSATURATED ZONE =        4901719.38       UNSATURATED ZONE =         -26893.92
       SATURATED ZONE =       -1.2658D+07         SATURATED ZONE =           5524.19

 OVERALL BUDGET ERROR =        -172485.37           BUDGET ERROR =             20.46


  PERCENT DISCREPANCY =             -0.04    PERCENT DISCREPANCY =              0.05



1
 SUMMARY VOLUMETRIC BUDGET FOR GSFLOW 
 DATE: 08 06 1996              CUMULATIVE TIME STEP:    5789
 MODFLOW STRESS PERIOD      2     CURRENT TIME STEP:    5789     ITERATIONS:      15

 -----------------------------------------------------------------------------------

   CUMULATIVE VOLUMES               L**3   RATES FOR THIS TIME STEP           L**3/T
   ------------------                      ------------------------

                                     IN                                         IN
                                     --                                         --
        PRECIPITATION =        4.6511D+08          PRECIPITATION =                  
           STREAMFLOW =                               STREAMFLOW =                  
     GW BOUNDARY FLOW =                         GW BOUNDARY FLOW =                  


                                    OUT                                        OUT
                                    ---                                        ---
   EVAPOTRANSPIRATION =        2.8393D+08     EVAPOTRANSPIRATION =          19834.04
           STREAMFLOW =        1.8532D+08             STREAMFLOW =           6662.80
     GW BOUNDARY FLOW =        3745535.57       GW BOUNDARY FLOW =            650.38

   INFLOWS - OUTFLOWS =       -7886343.80     INFLOWS - OUTFLOWS =         -27147.22
             --------                                   --------

 TOTAL STORAGE CHANGE =       -7713981.63         STORAGE CHANGE =         -27169.42
       --------------                             --------------
         LAND SURFACE =          37062.04           LAND SURFACE =          -2253.66
            SOIL ZONE =         153851.84              SOIL ZONE =          -3854.57
     UNSATURATED ZONE =        4716694.06       UNSATURATED ZONE =         -25958.07
       SATURATED ZONE =       -1.2622D+07         SATURATED ZONE =           4896.88

 OVERALL BUDGET ERROR =        -172362.17           BUDGET ERROR =             22.19


  PERCENT DISCREPANCY =             -0.04    PERCENT DISCREPANCY =              0.08



1
 SUMMARY VOLUMETRIC BUDGET FOR GSFLOW 
 DATE: 08 13 1996              CUMULATIVE TIME STEP:    5796
 MODFLOW STRESS PERIOD      2     CURRENT TIME STEP:    5796     ITERATIONS:      14

 -----------------------------------------------------------------------------------

   CUMULATIVE VOLUMES               L**3   RATES FOR THIS TIME STEP           L**3/T
   ------------------                      ------------------------

                                     IN                                         IN
                                     --                                         --
        PRECIPITATION =        4.6531D+08          PRECIPITATION =          54454.08
           STREAMFLOW =                               STREAMFLOW =                  
     GW BOUNDARY FLOW =                         GW BOUNDARY FLOW =                  


                                    OUT                                        OUT
                                    ---                                        ---
   EVAPOTRANSPIRATION =        2.8411D+08     EVAPOTRANSPIRATION =          29386.01
           STREAMFLOW =        1.8537D+08             STREAMFLOW =           7876.03
     GW BOUNDARY FLOW =        3750087.79       GW BOUNDARY FLOW =            650.33

   INFLOWS - OUTFLOWS =       -7913670.61     INFLOWS - OUTFLOWS =          16541.70
             --------                                   --------

 TOTAL STORAGE CHANGE =       -7741387.09         STORAGE CHANGE =          16524.68
       --------------                             --------------
         LAND SURFACE =          53162.52           LAND SURFACE =          -2312.39
            SOIL ZONE =         256212.16              SOIL ZONE =          39494.94
     UNSATURATED ZONE =        4541481.05       UNSATURATED ZONE =         -24422.04
       SATURATED ZONE =       -1.2592D+07         SATURATED ZONE =           3764.17

 OVERALL BUDGET ERROR =        -172283.52           BUDGET ERROR =             17.02


  PERCENT DISCREPANCY =             -0.04    PERCENT DISCREPANCY =              0.03



1
 SUMMARY VOLUMETRIC BUDGET FOR GSFLOW 
 DATE: 08 20 1996              CUMULATIVE TIME STEP:    5803
 MODFLOW STRESS PERIOD      2     CURRENT TIME STEP:    5803     ITERATIONS:      14

 -----------------------------------------------------------------------------------

   CUMULATIVE VOLUMES               L**3   RATES FOR THIS TIME STEP           L**3/T
   ------------------                      ------------------------

                                     IN                                         IN
                                     --                                         --
        PRECIPITATION =        4.6531D+08          PRECIPITATION =                  
           STREAMFLOW =                               STREAMFLOW =                  
     GW BOUNDARY FLOW =                         GW BOUNDARY FLOW =                  


                                    OUT                                        OUT
                                    ---                                        ---
   EVAPOTRANSPIRATION =        2.8431D+08     EVAPOTRANSPIRATION =          19360.60
           STREAMFLOW =        1.8542D+08             STREAMFLOW =           6464.82
     GW BOUNDARY FLOW =        3754638.48       GW BOUNDARY FLOW =            649.93

   INFLOWS - OUTFLOWS =       -8164495.16     INFLOWS - OUTFLOWS =         -26475.34
             --------                                   --------

 TOTAL STORAGE CHANGE =       -7992314.58         STORAGE CHANGE =         -26485.10
       --------------                             --------------
         LAND SURFACE =           6921.38           LAND SURFACE =          -1297.31
            SOIL ZONE =         195910.98              SOIL ZONE =          -4675.44
     UNSATURATED ZONE =        4374443.23       UNSATURATED ZONE =         -23356.99
       SATURATED ZONE =       -1.2570D+07         SATURATED ZONE =           2844.65

 OVERALL BUDGET ERROR =        -172180.58           BUDGET ERROR =              9.76


  PERCENT DISCREPANCY =             -0.04    PERCENT DISCREPANCY =              0.04



1
 SUMMARY VOLUMETRIC BUDGET FOR GSFLOW 
 DATE: 08 27 1996              CUMULATIVE TIME STEP:    5810
 MODFLOW STRESS PERIOD      2     CURRENT TIME STEP:    5810     ITERATIONS:      12

 -----------------------------------------------------------------------------------

   CUMULATIVE VOLUMES               L**3   RATES FOR THIS TIME STEP           L**3/T
   ------------------                      ------------------------

                                     IN                                         IN
                                     --                                         --
        PRECIPITATION =        4.6531D+08          PRECIPITATION =                  
           STREAMFLOW =                               STREAMFLOW =                  
     GW BOUNDARY FLOW =                         GW BOUNDARY FLOW =                  


                                    OUT                                        OUT
                                    ---                                        ---
   EVAPOTRANSPIRATION =        2.8445D+08     EVAPOTRANSPIRATION =          15488.90
           STREAMFLOW =        1.8546D+08             STREAMFLOW =           6302.52
     GW BOUNDARY FLOW =        3759186.45       GW BOUNDARY FLOW =            649.54

   INFLOWS - OUTFLOWS =       -8353942.31     INFLOWS - OUTFLOWS =         -22440.97
             --------                                   --------

 TOTAL STORAGE CHANGE =       -8181905.05         STORAGE CHANGE =         -22466.01
       --------------                             --------------
         LAND SURFACE =           1243.96           LAND SURFACE =           -271.65
            SOIL ZONE =         154646.35              SOIL ZONE =          -1917.05
     UNSATURATED ZONE =        4215559.43       UNSATURATED ZONE =         -22176.33
       SATURATED ZONE =       -1.2553D+07         SATURATED ZONE =           1899.03

 OVERALL BUDGET ERROR =        -172037.26           BUDGET ERROR =             25.03


  PERCENT DISCREPANCY =             -0.04    PERCENT DISCREPANCY =              0.11



1
 SUMMARY VOLUMETRIC BUDGET FOR GSFLOW 
 DATE: 09 03 1996              CUMULATIVE TIME STEP:    5817
 MODFLOW STRESS PERIOD      2     CURRENT TIME STEP:    5817     ITERATIONS:      13

 -----------------------------------------------------------------------------------

   CUMULATIVE VOLUMES               L**3   RATES FOR THIS TIME STEP           L**3/T
   ------------------                      ------------------------

                                     IN                                         IN
                                     --                                         --
        PRECIPITATION =        4.6531D+08          PRECIPITATION =                  
           STREAMFLOW =                               STREAMFLOW =                  
     GW BOUNDARY FLOW =                         GW BOUNDARY FLOW =                  


                                    OUT                                        OUT
                                    ---                                        ---
   EVAPOTRANSPIRATION =        2.8455D+08     EVAPOTRANSPIRATION =          12845.17
           STREAMFLOW =        1.8551D+08             STREAMFLOW =           6197.70
     GW BOUNDARY FLOW =        3763731.65       GW BOUNDARY FLOW =            649.14

   INFLOWS - OUTFLOWS =       -8509466.45     INFLOWS - OUTFLOWS =         -19692.01
             --------                                   --------

 TOTAL STORAGE CHANGE =       -8337582.44         STORAGE CHANGE =         -19716.06
       --------------                             --------------
         LAND SURFACE =            583.76           LAND SURFACE =            -75.05
            SOIL ZONE =         140614.83              SOIL ZONE =            403.37
     UNSATURATED ZONE =        4060725.42       UNSATURATED ZONE =         -22033.43
       SATURATED ZONE =       -1.2540D+07         SATURATED ZONE =           1989.05

 OVERALL BUDGET ERROR =        -171884.01           BUDGET ERROR =             24.04


  PERCENT DISCREPANCY =             -0.04    PERCENT DISCREPANCY =              0.12



1
 SUMMARY VOLUMETRIC BUDGET FOR GSFLOW 
 DATE: 09 10 1996              CUMULATIVE TIME STEP:    5824
 MODFLOW STRESS PERIOD      2     CURRENT TIME STEP:    5824     ITERATIONS:      12

 -----------------------------------------------------------------------------------

   CUMULATIVE VOLUMES               L**3   RATES FOR THIS TIME STEP           L**3/T
   ------------------                      ------------------------

                                     IN                                         IN
                                     --                                         --
        PRECIPITATION =        4.6531D+08          PRECIPITATION =                  
           STREAMFLOW =                               STREAMFLOW =                  
     GW BOUNDARY FLOW =                         GW BOUNDARY FLOW =                  


                                    OUT                                        OUT
                                    ---                                        ---
   EVAPOTRANSPIRATION =        2.8464D+08     EVAPOTRANSPIRATION =          13636.39
           STREAMFLOW =        1.8555D+08             STREAMFLOW =           6105.87
     GW BOUNDARY FLOW =        3768274.10       GW BOUNDARY FLOW =            648.75

   INFLOWS - OUTFLOWS =       -8642447.38     INFLOWS - OUTFLOWS =         -20391.00
             --------                                   --------

 TOTAL STORAGE CHANGE =       -8470738.93         STORAGE CHANGE =         -20419.49
       --------------                             --------------
         LAND SURFACE =            141.35           LAND SURFACE =            -69.28
            SOIL ZONE =         147348.39              SOIL ZONE =           -518.74
     UNSATURATED ZONE =        3911704.65       UNSATURATED ZONE =         -20806.22
       SATURATED ZONE =       -1.2530D+07         SATURATED ZONE =            974.74

 OVERALL BUDGET ERROR =        -171708.45           BUDGET ERROR =             28.49


  PERCENT DISCREPANCY =             -0.04    PERCENT DISCREPANCY =              0.14



1
 SUMMARY VOLUMETRIC BUDGET FOR GSFLOW 
 DATE: 09 17 1996              CUMULATIVE TIME STEP:    5831
 MODFLOW STRESS PERIOD      2     CURRENT TIME STEP:    5831     ITERATIONS:      12

 -----------------------------------------------------------------------------------

   CUMULATIVE VOLUMES               L**3   RATES FOR THIS TIME STEP           L**3/T
   ------------------                      ------------------------

                                     IN                                         IN
                                     --                                         --
        PRECIPITATION =        4.6637D+08          PRECIPITATION =                  
           STREAMFLOW =                               STREAMFLOW =                  
     GW BOUNDARY FLOW =                         GW BOUNDARY FLOW =                  


                                    OUT                                        OUT
                                    ---                                        ---
   EVAPOTRANSPIRATION =        2.8482D+08     EVAPOTRANSPIRATION =          58054.02
           STREAMFLOW =        1.8561D+08             STREAMFLOW =          10270.77
     GW BOUNDARY FLOW =        3772815.73       GW BOUNDARY FLOW =            649.14

   INFLOWS - OUTFLOWS =       -7836863.49     INFLOWS - OUTFLOWS =         -68973.94
             --------                                   --------

 TOTAL STORAGE CHANGE =       -7665408.67         STORAGE CHANGE =         -69008.81
       --------------                             --------------
         LAND SURFACE =           3348.24           LAND SURFACE =         -35098.95
            SOIL ZONE =        1085404.61              SOIL ZONE =         -14284.42
     UNSATURATED ZONE =        3770271.10       UNSATURATED ZONE =         -19777.91
       SATURATED ZONE =       -1.2524D+07         SATURATED ZONE =            152.47

 OVERALL BUDGET ERROR =        -171454.82           BUDGET ERROR =             34.87


  PERCENT DISCREPANCY =             -0.04    PERCENT DISCREPANCY =              0.05



1
 SUMMARY VOLUMETRIC BUDGET FOR GSFLOW 
 DATE: 09 24 1996              CUMULATIVE TIME STEP:    5838
 MODFLOW STRESS PERIOD      2     CURRENT TIME STEP:    5838     ITERATIONS:      16

 -----------------------------------------------------------------------------------

   CUMULATIVE VOLUMES               L**3   RATES FOR THIS TIME STEP           L**3/T
   ------------------                      ------------------------

                                     IN                                         IN
                                     --                                         --
        PRECIPITATION =        4.6637D+08          PRECIPITATION =                  
           STREAMFLOW =                               STREAMFLOW =                  
     GW BOUNDARY FLOW =                         GW BOUNDARY FLOW =                  


                                    OUT                                        OUT
                                    ---                                        ---
   EVAPOTRANSPIRATION =        2.8528D+08     EVAPOTRANSPIRATION =          54069.86
           STREAMFLOW =        1.8567D+08             STREAMFLOW =           6710.42
     GW BOUNDARY FLOW =        3777355.76       GW BOUNDARY FLOW =            648.24

   INFLOWS - OUTFLOWS =       -8357855.89     INFLOWS - OUTFLOWS =         -61428.52
             --------                                   --------

 TOTAL STORAGE CHANGE =       -8186516.63         STORAGE CHANGE =         -61426.31
       --------------                             --------------
         LAND SURFACE =                             LAND SURFACE =                  
            SOIL ZONE =         704165.39              SOIL ZONE =         -42019.48
     UNSATURATED ZONE =        3633991.82       UNSATURATED ZONE =         -19202.60
       SATURATED ZONE =       -1.2525D+07         SATURATED ZONE =           -204.23

 OVERALL BUDGET ERROR =        -171339.26           BUDGET ERROR =             -2.20


  PERCENT DISCREPANCY =             -0.04    PERCENT DISCREPANCY =             -0.00



