1
 SUMMARY VOLUMETRIC BUDGET FOR GSFLOW 
 DATE: 10 07 1980              CUMULATIVE TIME STEP:       7
 MODFLOW STRESS PERIOD      2     CURRENT TIME STEP:       7     ITERATIONS:       6

 -----------------------------------------------------------------------------------

   CUMULATIVE VOLUMES               L**3   RATES FOR THIS TIME STEP           L**3/T
   ------------------                      ------------------------

                                     IN                                         IN
                                     --                                         --
        PRECIPITATION =                            PRECIPITATION =                  
           STREAMFLOW =                               STREAMFLOW =                  
     GW BOUNDARY FLOW =                         GW BOUNDARY FLOW =                  


                                    OUT                                        OUT
                                    ---                                        ---
   EVAPOTRANSPIRATION =          63501.87     EVAPOTRANSPIRATION =           9679.38
           STREAMFLOW =          42957.63             STREAMFLOW =           6065.77
     GW BOUNDARY FLOW =           4541.44       GW BOUNDARY FLOW =            648.70

   INFLOWS - OUTFLOWS =        -111000.94     INFLOWS - OUTFLOWS =         -16393.85
             --------                                   --------

 TOTAL STORAGE CHANGE =        -110545.15         STORAGE CHANGE =         -16325.53
       --------------                             --------------
         LAND SURFACE =                             LAND SURFACE =                  
            SOIL ZONE =          47015.18              SOIL ZONE =           6017.04
     UNSATURATED ZONE =        -144777.37       UNSATURATED ZONE =         -20360.11
       SATURATED ZONE =         -12782.96         SATURATED ZONE =          -1982.46

 OVERALL BUDGET ERROR =           -455.78           BUDGET ERROR =            -68.32


  PERCENT DISCREPANCY =             -0.41    PERCENT DISCREPANCY =             -0.42



1
 SUMMARY VOLUMETRIC BUDGET FOR GSFLOW 
 DATE: 10 14 1980              CUMULATIVE TIME STEP:      14
 MODFLOW STRESS PERIOD      2     CURRENT TIME STEP:      14     ITERATIONS:       6

 -----------------------------------------------------------------------------------

   CUMULATIVE VOLUMES               L**3   RATES FOR THIS TIME STEP           L**3/T
   ------------------                      ------------------------

                                     IN                                         IN
                                     --                                         --
        PRECIPITATION =         650779.83          PRECIPITATION =         164754.40
           STREAMFLOW =                               STREAMFLOW =                  
     GW BOUNDARY FLOW =                         GW BOUNDARY FLOW =                  


                                    OUT                                        OUT
                                    ---                                        ---
   EVAPOTRANSPIRATION =         147658.87     EVAPOTRANSPIRATION =           7975.53
           STREAMFLOW =          92677.71             STREAMFLOW =           7494.66
     GW BOUNDARY FLOW =           9082.78       GW BOUNDARY FLOW =            648.89

   INFLOWS - OUTFLOWS =         401360.48     INFLOWS - OUTFLOWS =         148635.31
             --------                                   --------

 TOTAL STORAGE CHANGE =         402331.04         STORAGE CHANGE =         148709.31
       --------------                             --------------
         LAND SURFACE =         277689.24           LAND SURFACE =         136623.45
            SOIL ZONE =         436768.64              SOIL ZONE =          34103.71
     UNSATURATED ZONE =        -284452.37       UNSATURATED ZONE =         -19623.49
       SATURATED ZONE =         -27674.48         SATURATED ZONE =          -2394.36

 OVERALL BUDGET ERROR =           -970.56           BUDGET ERROR =            -73.99


  PERCENT DISCREPANCY =             -0.15    PERCENT DISCREPANCY =             -0.04



1
 SUMMARY VOLUMETRIC BUDGET FOR GSFLOW 
 DATE: 10 21 1980              CUMULATIVE TIME STEP:      21
 MODFLOW STRESS PERIOD      2     CURRENT TIME STEP:      21     ITERATIONS:       6

 -----------------------------------------------------------------------------------

   CUMULATIVE VOLUMES               L**3   RATES FOR THIS TIME STEP           L**3/T
   ------------------                      ------------------------

                                     IN                                         IN
                                     --                                         --
        PRECIPITATION =         733157.03          PRECIPITATION =                  
           STREAMFLOW =                               STREAMFLOW =                  
     GW BOUNDARY FLOW =                         GW BOUNDARY FLOW =                  


                                    OUT                                        OUT
                                    ---                                        ---
   EVAPOTRANSPIRATION =         376396.56     EVAPOTRANSPIRATION =          37107.61
           STREAMFLOW =         144890.01             STREAMFLOW =           7105.83
     GW BOUNDARY FLOW =          13624.56       GW BOUNDARY FLOW =            648.77

   INFLOWS - OUTFLOWS =         198245.89     INFLOWS - OUTFLOWS =         -44862.21
             --------                                   --------

 TOTAL STORAGE CHANGE =         199726.05         STORAGE CHANGE =         -44781.47
       --------------                             --------------
         LAND SURFACE =           2250.88           LAND SURFACE =          -3153.72
            SOIL ZONE =         662442.73              SOIL ZONE =         -19836.14
     UNSATURATED ZONE =        -418622.05       UNSATURATED ZONE =         -18801.05
       SATURATED ZONE =         -46345.52         SATURATED ZONE =          -2990.56

 OVERALL BUDGET ERROR =          -1480.15           BUDGET ERROR =            -80.74


  PERCENT DISCREPANCY =             -0.20    PERCENT DISCREPANCY =             -0.18



1
 SUMMARY VOLUMETRIC BUDGET FOR GSFLOW 
 DATE: 10 28 1980              CUMULATIVE TIME STEP:      28
 MODFLOW STRESS PERIOD      2     CURRENT TIME STEP:      28     ITERATIONS:       6

 -----------------------------------------------------------------------------------

   CUMULATIVE VOLUMES               L**3   RATES FOR THIS TIME STEP           L**3/T
   ------------------                      ------------------------

                                     IN                                         IN
                                     --                                         --
        PRECIPITATION =        1070903.53          PRECIPITATION =                  
           STREAMFLOW =                               STREAMFLOW =                  
     GW BOUNDARY FLOW =                         GW BOUNDARY FLOW =                  


                                    OUT                                        OUT
                                    ---                                        ---
   EVAPOTRANSPIRATION =         557223.07     EVAPOTRANSPIRATION =          23594.60
           STREAMFLOW =         199833.49             STREAMFLOW =           7989.29
     GW BOUNDARY FLOW =          18165.91       GW BOUNDARY FLOW =            648.81

   INFLOWS - OUTFLOWS =         295681.05     INFLOWS - OUTFLOWS =         -32232.69
             --------                                   --------

 TOTAL STORAGE CHANGE =         297732.57         STORAGE CHANGE =         -32146.02
       --------------                             --------------
         LAND SURFACE =          24619.51           LAND SURFACE =         -30948.99
            SOIL ZONE =         889255.98              SOIL ZONE =          20270.80
     UNSATURATED ZONE =        -547225.20       UNSATURATED ZONE =         -17994.12
       SATURATED ZONE =         -68917.73         SATURATED ZONE =          -3473.70

 OVERALL BUDGET ERROR =          -2051.52           BUDGET ERROR =            -86.68


  PERCENT DISCREPANCY =             -0.19    PERCENT DISCREPANCY =             -0.27



1
 SUMMARY VOLUMETRIC BUDGET FOR GSFLOW 
 DATE: 11 04 1980              CUMULATIVE TIME STEP:      35
 MODFLOW STRESS PERIOD      2     CURRENT TIME STEP:      35     ITERATIONS:       8

 -----------------------------------------------------------------------------------

   CUMULATIVE VOLUMES               L**3   RATES FOR THIS TIME STEP           L**3/T
   ------------------                      ------------------------

                                     IN                                         IN
                                     --                                         --
        PRECIPITATION =        1070903.53          PRECIPITATION =                  
           STREAMFLOW =                               STREAMFLOW =                  
     GW BOUNDARY FLOW =                         GW BOUNDARY FLOW =                  


                                    OUT                                        OUT
                                    ---                                        ---
   EVAPOTRANSPIRATION =         854957.71     EVAPOTRANSPIRATION =          38438.27
           STREAMFLOW =         252301.20             STREAMFLOW =           7018.29
     GW BOUNDARY FLOW =          22706.92       GW BOUNDARY FLOW =            648.64

   INFLOWS - OUTFLOWS =         -59062.30     INFLOWS - OUTFLOWS =         -46105.21
             --------                                   --------

 TOTAL STORAGE CHANGE =         -56520.02         STORAGE CHANGE =         -46043.03
       --------------                             --------------
         LAND SURFACE =                             LAND SURFACE =                  
            SOIL ZONE =         710236.93              SOIL ZONE =         -24517.21
     UNSATURATED ZONE =        -670653.09       UNSATURATED ZONE =         -17361.18
       SATURATED ZONE =         -96103.86         SATURATED ZONE =          -4164.65

 OVERALL BUDGET ERROR =          -2542.28           BUDGET ERROR =            -62.18


  PERCENT DISCREPANCY =             -0.23    PERCENT DISCREPANCY =             -0.13



1
 SUMMARY VOLUMETRIC BUDGET FOR GSFLOW 
 DATE: 11 11 1980              CUMULATIVE TIME STEP:      42
 MODFLOW STRESS PERIOD      2     CURRENT TIME STEP:      42     ITERATIONS:       7

 -----------------------------------------------------------------------------------

   CUMULATIVE VOLUMES               L**3   RATES FOR THIS TIME STEP           L**3/T
   ------------------                      ------------------------

                                     IN                                         IN
                                     --                                         --
        PRECIPITATION =        1573762.54          PRECIPITATION =         255182.19
           STREAMFLOW =                               STREAMFLOW =                  
     GW BOUNDARY FLOW =                         GW BOUNDARY FLOW =                  


                                    OUT                                        OUT
                                    ---                                        ---
   EVAPOTRANSPIRATION =        1066452.17     EVAPOTRANSPIRATION =          14943.52
           STREAMFLOW =         308269.57             STREAMFLOW =          10769.61
     GW BOUNDARY FLOW =          27247.64       GW BOUNDARY FLOW =            648.84

   INFLOWS - OUTFLOWS =         171793.16     INFLOWS - OUTFLOWS =         228820.21
             --------                                   --------

 TOTAL STORAGE CHANGE =         174872.57         STORAGE CHANGE =         228883.55
       --------------                             --------------
         LAND SURFACE =          78612.95           LAND SURFACE =          76659.87
            SOIL ZONE =        1011575.26              SOIL ZONE =         172849.15
     UNSATURATED ZONE =        -789250.83       UNSATURATED ZONE =         -16535.24
       SATURATED ZONE =        -126064.82         SATURATED ZONE =          -4090.22

 OVERALL BUDGET ERROR =          -3079.40           BUDGET ERROR =            -63.34


  PERCENT DISCREPANCY =             -0.20    PERCENT DISCREPANCY =             -0.02



1
 SUMMARY VOLUMETRIC BUDGET FOR GSFLOW 
 DATE: 11 18 1980              CUMULATIVE TIME STEP:      49
 MODFLOW STRESS PERIOD      2     CURRENT TIME STEP:      49     ITERATIONS:       6

 -----------------------------------------------------------------------------------

   CUMULATIVE VOLUMES               L**3   RATES FOR THIS TIME STEP           L**3/T
   ------------------                      ------------------------

                                     IN                                         IN
                                     --                                         --
        PRECIPITATION =        1573762.54          PRECIPITATION =                  
           STREAMFLOW =                               STREAMFLOW =                  
     GW BOUNDARY FLOW =                         GW BOUNDARY FLOW =                  


                                    OUT                                        OUT
                                    ---                                        ---
   EVAPOTRANSPIRATION =        1154887.60     EVAPOTRANSPIRATION =          16641.07
           STREAMFLOW =         371175.09             STREAMFLOW =           9357.03
     GW BOUNDARY FLOW =          31789.52       GW BOUNDARY FLOW =            648.86

   INFLOWS - OUTFLOWS =          15910.33     INFLOWS - OUTFLOWS =         -26646.97
             --------                                   --------

 TOTAL STORAGE CHANGE =          19630.41         STORAGE CHANGE =         -26546.52
       --------------                             --------------
         LAND SURFACE =           8654.86           LAND SURFACE =          -6203.23
            SOIL ZONE =        1072830.84              SOIL ZONE =            475.59
     UNSATURATED ZONE =        -903178.45       UNSATURATED ZONE =         -16031.96
       SATURATED ZONE =        -158676.83         SATURATED ZONE =          -4786.92

 OVERALL BUDGET ERROR =          -3720.08           BUDGET ERROR =           -100.44


  PERCENT DISCREPANCY =             -0.24    PERCENT DISCREPANCY =             -0.38



1
 SUMMARY VOLUMETRIC BUDGET FOR GSFLOW 
 DATE: 11 25 1980              CUMULATIVE TIME STEP:      56
 MODFLOW STRESS PERIOD      2     CURRENT TIME STEP:      56     ITERATIONS:       8

 -----------------------------------------------------------------------------------

   CUMULATIVE VOLUMES               L**3   RATES FOR THIS TIME STEP           L**3/T
   ------------------                      ------------------------

                                     IN                                         IN
                                     --                                         --
        PRECIPITATION =        1648816.13          PRECIPITATION =                  
           STREAMFLOW =                               STREAMFLOW =                  
     GW BOUNDARY FLOW =                         GW BOUNDARY FLOW =                  


                                    OUT                                        OUT
                                    ---                                        ---
   EVAPOTRANSPIRATION =        1230201.87     EVAPOTRANSPIRATION =           8792.74
           STREAMFLOW =         438358.68             STREAMFLOW =           9949.55
     GW BOUNDARY FLOW =          36331.80       GW BOUNDARY FLOW =            648.93

   INFLOWS - OUTFLOWS =         -56076.22     INFLOWS - OUTFLOWS =         -19391.23
             --------                                   --------

 TOTAL STORAGE CHANGE =         -51802.70         STORAGE CHANGE =         -19326.28
       --------------                             --------------
         LAND SURFACE =          55166.83           LAND SURFACE =          -8744.58
            SOIL ZONE =        1100548.99              SOIL ZONE =          10160.17
     UNSATURATED ZONE =       -1012809.99       UNSATURATED ZONE =         -15404.87
       SATURATED ZONE =        -194708.53         SATURATED ZONE =          -5337.00

 OVERALL BUDGET ERROR =          -4273.53           BUDGET ERROR =            -64.95


  PERCENT DISCREPANCY =             -0.25    PERCENT DISCREPANCY =             -0.34



1
 SUMMARY VOLUMETRIC BUDGET FOR GSFLOW 
 DATE: 12 02 1980              CUMULATIVE TIME STEP:      63
 MODFLOW STRESS PERIOD      2     CURRENT TIME STEP:      63     ITERATIONS:       8

 -----------------------------------------------------------------------------------

   CUMULATIVE VOLUMES               L**3   RATES FOR THIS TIME STEP           L**3/T
   ------------------                      ------------------------

                                     IN                                         IN
                                     --                                         --
        PRECIPITATION =        2076621.55          PRECIPITATION =                  
           STREAMFLOW =                               STREAMFLOW =                  
     GW BOUNDARY FLOW =                         GW BOUNDARY FLOW =                  


                                    OUT                                        OUT
                                    ---                                        ---
   EVAPOTRANSPIRATION =        1423644.40     EVAPOTRANSPIRATION =          34189.30
           STREAMFLOW =         523309.69             STREAMFLOW =          15236.09
     GW BOUNDARY FLOW =          40875.74       GW BOUNDARY FLOW =            649.44

   INFLOWS - OUTFLOWS =          88791.72     INFLOWS - OUTFLOWS =         -50074.83
             --------                                   --------

 TOTAL STORAGE CHANGE =          93498.02         STORAGE CHANGE =         -50018.24
       --------------                             --------------
         LAND SURFACE =         152551.10           LAND SURFACE =         -75205.42
            SOIL ZONE =        1286015.36              SOIL ZONE =          42855.28
     UNSATURATED ZONE =       -1114357.85       UNSATURATED ZONE =         -13043.31
       SATURATED ZONE =        -230710.60         SATURATED ZONE =          -4624.80

 OVERALL BUDGET ERROR =          -4706.30           BUDGET ERROR =            -56.59


  PERCENT DISCREPANCY =             -0.23    PERCENT DISCREPANCY =             -0.11



1
 SUMMARY VOLUMETRIC BUDGET FOR GSFLOW 
 DATE: 12 09 1980              CUMULATIVE TIME STEP:      70
 MODFLOW STRESS PERIOD      2     CURRENT TIME STEP:      70     ITERATIONS:       8

 -----------------------------------------------------------------------------------

   CUMULATIVE VOLUMES               L**3   RATES FOR THIS TIME STEP           L**3/T
   ------------------                      ------------------------

                                     IN                                         IN
                                     --                                         --
        PRECIPITATION =        4284363.63          PRECIPITATION =                  
           STREAMFLOW =                               STREAMFLOW =                  
     GW BOUNDARY FLOW =                         GW BOUNDARY FLOW =                  


                                    OUT                                        OUT
                                    ---                                        ---
   EVAPOTRANSPIRATION =        1447062.77     EVAPOTRANSPIRATION =           2942.43
           STREAMFLOW =         622581.33             STREAMFLOW =          14460.31
     GW BOUNDARY FLOW =          45422.60       GW BOUNDARY FLOW =            649.64

   INFLOWS - OUTFLOWS =        2169296.94     INFLOWS - OUTFLOWS =         -18052.39
             --------                                   --------

 TOTAL STORAGE CHANGE =        2174479.93         STORAGE CHANGE =         -18003.60
       --------------                             --------------
         LAND SURFACE =        2335216.87           LAND SURFACE =          -2942.43
            SOIL ZONE =        1321848.31              SOIL ZONE =           5168.50
     UNSATURATED ZONE =       -1212721.92       UNSATURATED ZONE =         -14219.62
       SATURATED ZONE =        -269863.33         SATURATED ZONE =          -6010.05

 OVERALL BUDGET ERROR =          -5183.00           BUDGET ERROR =            -48.79


  PERCENT DISCREPANCY =             -0.12    PERCENT DISCREPANCY =             -0.27



1
 SUMMARY VOLUMETRIC BUDGET FOR GSFLOW 
 DATE: 12 16 1980              CUMULATIVE TIME STEP:      77
 MODFLOW STRESS PERIOD      2     CURRENT TIME STEP:      77     ITERATIONS:       7

 -----------------------------------------------------------------------------------

   CUMULATIVE VOLUMES               L**3   RATES FOR THIS TIME STEP           L**3/T
   ------------------                      ------------------------

                                     IN                                         IN
                                     --                                         --
        PRECIPITATION =        4284363.63          PRECIPITATION =                  
           STREAMFLOW =                               STREAMFLOW =                  
     GW BOUNDARY FLOW =                         GW BOUNDARY FLOW =                  


                                    OUT                                        OUT
                                    ---                                        ---
   EVAPOTRANSPIRATION =        1589062.12     EVAPOTRANSPIRATION =          33888.80
           STREAMFLOW =         742127.32             STREAMFLOW =          24744.90
     GW BOUNDARY FLOW =          49971.18       GW BOUNDARY FLOW =            650.23

   INFLOWS - OUTFLOWS =        1903203.02     INFLOWS - OUTFLOWS =         -59283.94
             --------                                   --------

 TOTAL STORAGE CHANGE =        1908814.54         STORAGE CHANGE =         -59212.64
       --------------                             --------------
         LAND SURFACE =        2023939.67           LAND SURFACE =        -129021.52
            SOIL ZONE =        1498072.91              SOIL ZONE =          83500.70
     UNSATURATED ZONE =       -1302772.58       UNSATURATED ZONE =          -9208.05
       SATURATED ZONE =        -310425.45         SATURATED ZONE =          -4483.78

 OVERALL BUDGET ERROR =          -5611.53           BUDGET ERROR =            -71.30


  PERCENT DISCREPANCY =             -0.13    PERCENT DISCREPANCY =             -0.12



1
 SUMMARY VOLUMETRIC BUDGET FOR GSFLOW 
 DATE: 12 23 1980              CUMULATIVE TIME STEP:      84
 MODFLOW STRESS PERIOD      2     CURRENT TIME STEP:      84     ITERATIONS:       9

 -----------------------------------------------------------------------------------

   CUMULATIVE VOLUMES               L**3   RATES FOR THIS TIME STEP           L**3/T
   ------------------                      ------------------------

                                     IN                                         IN
                                     --                                         --
        PRECIPITATION =        4516757.54          PRECIPITATION =                  
           STREAMFLOW =                               STREAMFLOW =                  
     GW BOUNDARY FLOW =                         GW BOUNDARY FLOW =                  


                                    OUT                                        OUT
                                    ---                                        ---
   EVAPOTRANSPIRATION =        1795115.21     EVAPOTRANSPIRATION =          35140.32
           STREAMFLOW =         968043.00             STREAMFLOW =          30092.09
     GW BOUNDARY FLOW =          54531.42       GW BOUNDARY FLOW =            651.90

   INFLOWS - OUTFLOWS =        1699067.90     INFLOWS - OUTFLOWS =         -65884.31
             --------                                   --------

 TOTAL STORAGE CHANGE =        1704996.08         STORAGE CHANGE =         -65847.71
       --------------                             --------------
         LAND SURFACE =        1433268.50           LAND SURFACE =         -48191.47
            SOIL ZONE =        1956990.35              SOIL ZONE =          -6624.68
     UNSATURATED ZONE =       -1346322.20       UNSATURATED ZONE =          -6293.02
       SATURATED ZONE =        -338940.57         SATURATED ZONE =          -4738.54

 OVERALL BUDGET ERROR =          -5928.18           BUDGET ERROR =            -36.60


  PERCENT DISCREPANCY =             -0.13    PERCENT DISCREPANCY =             -0.06



1
 SUMMARY VOLUMETRIC BUDGET FOR GSFLOW 
 DATE: 12 30 1980              CUMULATIVE TIME STEP:      91
 MODFLOW STRESS PERIOD      2     CURRENT TIME STEP:      91     ITERATIONS:       9

 -----------------------------------------------------------------------------------

   CUMULATIVE VOLUMES               L**3   RATES FOR THIS TIME STEP           L**3/T
   ------------------                      ------------------------

                                     IN                                         IN
                                     --                                         --
        PRECIPITATION =        4516757.54          PRECIPITATION =                  
           STREAMFLOW =                               STREAMFLOW =                  
     GW BOUNDARY FLOW =                         GW BOUNDARY FLOW =                  


                                    OUT                                        OUT
                                    ---                                        ---
   EVAPOTRANSPIRATION =        2155747.72     EVAPOTRANSPIRATION =          45887.78
           STREAMFLOW =        1211979.73             STREAMFLOW =          27166.26
     GW BOUNDARY FLOW =          59097.99       GW BOUNDARY FLOW =            652.35

   INFLOWS - OUTFLOWS =        1089932.09     INFLOWS - OUTFLOWS =         -73706.39
             --------                                   --------

 TOTAL STORAGE CHANGE =        1096035.78         STORAGE CHANGE =         -73685.67
       --------------                             --------------
         LAND SURFACE =         641159.81           LAND SURFACE =         -40370.18
            SOIL ZONE =        2181728.68              SOIL ZONE =         -23721.79
     UNSATURATED ZONE =       -1361633.84       UNSATURATED ZONE =          -5202.14
       SATURATED ZONE =        -365218.88         SATURATED ZONE =          -4391.57

 OVERALL BUDGET ERROR =          -6103.69           BUDGET ERROR =            -20.72


  PERCENT DISCREPANCY =             -0.14    PERCENT DISCREPANCY =             -0.03



1
 SUMMARY VOLUMETRIC BUDGET FOR GSFLOW 
 DATE: 01 06 1981              CUMULATIVE TIME STEP:      98
 MODFLOW STRESS PERIOD      2     CURRENT TIME STEP:      98     ITERATIONS:       8

 -----------------------------------------------------------------------------------

   CUMULATIVE VOLUMES               L**3   RATES FOR THIS TIME STEP           L**3/T
   ------------------                      ------------------------

                                     IN                                         IN
                                     --                                         --
        PRECIPITATION =        5004445.43          PRECIPITATION =                  
           STREAMFLOW =                               STREAMFLOW =                  
     GW BOUNDARY FLOW =                         GW BOUNDARY FLOW =                  


                                    OUT                                        OUT
                                    ---                                        ---
   EVAPOTRANSPIRATION =        2383672.47     EVAPOTRANSPIRATION =          21388.78
           STREAMFLOW =        1365827.77             STREAMFLOW =          21180.02
     GW BOUNDARY FLOW =          63659.51       GW BOUNDARY FLOW =            651.25

   INFLOWS - OUTFLOWS =        1191285.68     INFLOWS - OUTFLOWS =         -43220.04
             --------                                   --------

 TOTAL STORAGE CHANGE =        1197607.13         STORAGE CHANGE =         -43180.90
       --------------                             --------------
         LAND SURFACE =         837080.27           LAND SURFACE =         -30417.06
            SOIL ZONE =        2192499.81              SOIL ZONE =           3031.19
     UNSATURATED ZONE =       -1428742.64       UNSATURATED ZONE =         -10080.23
       SATURATED ZONE =        -403230.31         SATURATED ZONE =          -5714.80

 OVERALL BUDGET ERROR =          -6321.45           BUDGET ERROR =            -39.14


  PERCENT DISCREPANCY =             -0.13    PERCENT DISCREPANCY =             -0.09



1
 SUMMARY VOLUMETRIC BUDGET FOR GSFLOW 
 DATE: 01 13 1981              CUMULATIVE TIME STEP:     105
 MODFLOW STRESS PERIOD      2     CURRENT TIME STEP:     105     ITERATIONS:       7

 -----------------------------------------------------------------------------------

   CUMULATIVE VOLUMES               L**3   RATES FOR THIS TIME STEP           L**3/T
   ------------------                      ------------------------

                                     IN                                         IN
                                     --                                         --
        PRECIPITATION =        5004445.43          PRECIPITATION =                  
           STREAMFLOW =                               STREAMFLOW =                  
     GW BOUNDARY FLOW =                         GW BOUNDARY FLOW =                  


                                    OUT                                        OUT
                                    ---                                        ---
   EVAPOTRANSPIRATION =        2601185.12     EVAPOTRANSPIRATION =          44455.00
           STREAMFLOW =        1513583.16             STREAMFLOW =          20001.50
     GW BOUNDARY FLOW =          68216.62       GW BOUNDARY FLOW =            650.83

   INFLOWS - OUTFLOWS =         821460.53     INFLOWS - OUTFLOWS =         -65107.34
             --------                                   --------

 TOTAL STORAGE CHANGE =         828163.23         STORAGE CHANGE =         -65048.31
       --------------                             --------------
         LAND SURFACE =         626702.00           LAND SURFACE =         -38991.59
            SOIL ZONE =        2141680.32              SOIL ZONE =         -10379.32
     UNSATURATED ZONE =       -1493726.88       UNSATURATED ZONE =          -9178.70
       SATURATED ZONE =        -446492.22         SATURATED ZONE =          -6498.71

 OVERALL BUDGET ERROR =          -6702.70           BUDGET ERROR =            -59.02


  PERCENT DISCREPANCY =             -0.13    PERCENT DISCREPANCY =             -0.09



1
 SUMMARY VOLUMETRIC BUDGET FOR GSFLOW 
 DATE: 01 20 1981              CUMULATIVE TIME STEP:     112
 MODFLOW STRESS PERIOD      2     CURRENT TIME STEP:     112     ITERATIONS:       8

 -----------------------------------------------------------------------------------

   CUMULATIVE VOLUMES               L**3   RATES FOR THIS TIME STEP           L**3/T
   ------------------                      ------------------------

                                     IN                                         IN
                                     --                                         --
        PRECIPITATION =        5170466.84          PRECIPITATION =          41505.35
           STREAMFLOW =                               STREAMFLOW =                  
     GW BOUNDARY FLOW =                         GW BOUNDARY FLOW =                  


                                    OUT                                        OUT
                                    ---                                        ---
   EVAPOTRANSPIRATION =        2883458.15     EVAPOTRANSPIRATION =          35211.70
           STREAMFLOW =        1654864.26             STREAMFLOW =          20081.97
     GW BOUNDARY FLOW =          72771.39       GW BOUNDARY FLOW =            650.64

   INFLOWS - OUTFLOWS =         559373.04     INFLOWS - OUTFLOWS =         -14438.96
             --------                                   --------

 TOTAL STORAGE CHANGE =         566409.19         STORAGE CHANGE =         -14404.29
       --------------                             --------------
         LAND SURFACE =         436285.42           LAND SURFACE =           4326.68
            SOIL ZONE =        2147613.14              SOIL ZONE =         -10124.61
     UNSATURATED ZONE =       -1526443.87       UNSATURATED ZONE =          -1927.46
       SATURATED ZONE =        -491045.50         SATURATED ZONE =          -6678.89

 OVERALL BUDGET ERROR =          -7036.15           BUDGET ERROR =            -34.67


  PERCENT DISCREPANCY =             -0.14    PERCENT DISCREPANCY =             -0.06



1
 SUMMARY VOLUMETRIC BUDGET FOR GSFLOW 
 DATE: 01 27 1981              CUMULATIVE TIME STEP:     119
 MODFLOW STRESS PERIOD      2     CURRENT TIME STEP:     119     ITERATIONS:       9

 -----------------------------------------------------------------------------------

   CUMULATIVE VOLUMES               L**3   RATES FOR THIS TIME STEP           L**3/T
   ------------------                      ------------------------

                                     IN                                         IN
                                     --                                         --
        PRECIPITATION =        8646540.08          PRECIPITATION =        2936503.63
           STREAMFLOW =                               STREAMFLOW =                  
     GW BOUNDARY FLOW =                         GW BOUNDARY FLOW =                  


                                    OUT                                        OUT
                                    ---                                        ---
   EVAPOTRANSPIRATION =        3118027.10     EVAPOTRANSPIRATION =          13120.97
           STREAMFLOW =        1800247.58             STREAMFLOW =          18658.71
     GW BOUNDARY FLOW =          77325.71       GW BOUNDARY FLOW =            650.44

   INFLOWS - OUTFLOWS =        3650939.68     INFLOWS - OUTFLOWS =        2904073.51
             --------                                   --------

 TOTAL STORAGE CHANGE =        3658129.10         STORAGE CHANGE =        2904097.74
       --------------                             --------------
         LAND SURFACE =        3540180.85           LAND SURFACE =        2923352.24
            SOIL ZONE =        2170152.30              SOIL ZONE =          -7528.92
     UNSATURATED ZONE =       -1515775.16       UNSATURATED ZONE =          -4807.16
       SATURATED ZONE =        -536428.89         SATURATED ZONE =          -6918.43

 OVERALL BUDGET ERROR =          -7189.41           BUDGET ERROR =            -24.22


  PERCENT DISCREPANCY =             -0.08    PERCENT DISCREPANCY =             -0.00



1
 SUMMARY VOLUMETRIC BUDGET FOR GSFLOW 
 DATE: 02 03 1981              CUMULATIVE TIME STEP:     126
 MODFLOW STRESS PERIOD      2     CURRENT TIME STEP:     126     ITERATIONS:       9

 -----------------------------------------------------------------------------------

   CUMULATIVE VOLUMES               L**3   RATES FOR THIS TIME STEP           L**3/T
   ------------------                      ------------------------

                                     IN                                         IN
                                     --                                         --
        PRECIPITATION =        1.1739D+07          PRECIPITATION =                  
           STREAMFLOW =                               STREAMFLOW =                  
     GW BOUNDARY FLOW =                         GW BOUNDARY FLOW =                  


                                    OUT                                        OUT
                                    ---                                        ---
   EVAPOTRANSPIRATION =        3154540.15     EVAPOTRANSPIRATION =           6975.48
           STREAMFLOW =        1926776.82             STREAMFLOW =          17968.19
     GW BOUNDARY FLOW =          81877.80       GW BOUNDARY FLOW =            650.25

   INFLOWS - OUTFLOWS =        6575494.01     INFLOWS - OUTFLOWS =         -25593.92
             --------                                   --------

 TOTAL STORAGE CHANGE =        6582917.93         STORAGE CHANGE =         -25568.85
       --------------                             --------------
         LAND SURFACE =        6595816.50           LAND SURFACE =          -6975.48
            SOIL ZONE =        2159029.72              SOIL ZONE =            484.06
     UNSATURATED ZONE =       -1583656.94       UNSATURATED ZONE =         -11359.56
       SATURATED ZONE =        -588271.36         SATURATED ZONE =          -7717.87

 OVERALL BUDGET ERROR =          -7423.92           BUDGET ERROR =            -25.07


  PERCENT DISCREPANCY =             -0.06    PERCENT DISCREPANCY =             -0.10



1
 SUMMARY VOLUMETRIC BUDGET FOR GSFLOW 
 DATE: 02 10 1981              CUMULATIVE TIME STEP:     133
 MODFLOW STRESS PERIOD      2     CURRENT TIME STEP:     133     ITERATIONS:       7

 -----------------------------------------------------------------------------------

   CUMULATIVE VOLUMES               L**3   RATES FOR THIS TIME STEP           L**3/T
   ------------------                      ------------------------

                                     IN                                         IN
                                     --                                         --
        PRECIPITATION =        1.1838D+07          PRECIPITATION =                  
           STREAMFLOW =                               STREAMFLOW =                  
     GW BOUNDARY FLOW =                         GW BOUNDARY FLOW =                  


                                    OUT                                        OUT
                                    ---                                        ---
   EVAPOTRANSPIRATION =        3279941.21     EVAPOTRANSPIRATION =          32880.06
           STREAMFLOW =        2052822.54             STREAMFLOW =          18033.58
     GW BOUNDARY FLOW =          86429.54       GW BOUNDARY FLOW =            650.24

   INFLOWS - OUTFLOWS =        6419059.99     INFLOWS - OUTFLOWS =         -51563.87
             --------                                   --------

 TOTAL STORAGE CHANGE =        6426754.35         STORAGE CHANGE =         -51489.91
       --------------                             --------------
         LAND SURFACE =        6569979.95           LAND SURFACE =         -32880.06
            SOIL ZONE =        2163258.08              SOIL ZONE =            587.26
     UNSATURATED ZONE =       -1661836.76       UNSATURATED ZONE =         -10834.50
       SATURATED ZONE =        -644646.92         SATURATED ZONE =          -8362.61

 OVERALL BUDGET ERROR =          -7694.36           BUDGET ERROR =            -73.96


  PERCENT DISCREPANCY =             -0.06    PERCENT DISCREPANCY =             -0.14



1
 SUMMARY VOLUMETRIC BUDGET FOR GSFLOW 
 DATE: 02 17 1981              CUMULATIVE TIME STEP:     140
 MODFLOW STRESS PERIOD      2     CURRENT TIME STEP:     140     ITERATIONS:      14

 -----------------------------------------------------------------------------------

   CUMULATIVE VOLUMES               L**3   RATES FOR THIS TIME STEP           L**3/T
   ------------------                      ------------------------

                                     IN                                         IN
                                     --                                         --
        PRECIPITATION =        1.2765D+07          PRECIPITATION =          68929.28
           STREAMFLOW =                               STREAMFLOW =                  
     GW BOUNDARY FLOW =                         GW BOUNDARY FLOW =                  


                                    OUT                                        OUT
                                    ---                                        ---
   EVAPOTRANSPIRATION =        3618039.01     EVAPOTRANSPIRATION =          68607.56
           STREAMFLOW =        2593992.28             STREAMFLOW =         124795.63
     GW BOUNDARY FLOW =          91003.32       GW BOUNDARY FLOW =            656.82

   INFLOWS - OUTFLOWS =        6461934.50     INFLOWS - OUTFLOWS =        -125130.74
             --------                                   --------

 TOTAL STORAGE CHANGE =        6469907.66         STORAGE CHANGE =        -125118.04
       --------------                             --------------
         LAND SURFACE =        5590061.11           LAND SURFACE =        -278671.93
            SOIL ZONE =        2957465.92              SOIL ZONE =          72146.92
     UNSATURATED ZONE =       -1416566.37       UNSATURATED ZONE =          78966.82
       SATURATED ZONE =        -661053.00         SATURATED ZONE =           2440.15

 OVERALL BUDGET ERROR =          -7973.16           BUDGET ERROR =            -12.70


  PERCENT DISCREPANCY =             -0.06    PERCENT DISCREPANCY =             -0.01



1
 SUMMARY VOLUMETRIC BUDGET FOR GSFLOW 
 DATE: 02 24 1981              CUMULATIVE TIME STEP:     147
 MODFLOW STRESS PERIOD      2     CURRENT TIME STEP:     147     ITERATIONS:      14

 -----------------------------------------------------------------------------------

   CUMULATIVE VOLUMES               L**3   RATES FOR THIS TIME STEP           L**3/T
   ------------------                      ------------------------

                                     IN                                         IN
                                     --                                         --
        PRECIPITATION =        1.3179D+07          PRECIPITATION =         344646.37
           STREAMFLOW =                               STREAMFLOW =                  
     GW BOUNDARY FLOW =                         GW BOUNDARY FLOW =                  


                                    OUT                                        OUT
                                    ---                                        ---
   EVAPOTRANSPIRATION =        3959360.59     EVAPOTRANSPIRATION =          18832.76
           STREAMFLOW =        3151286.93             STREAMFLOW =          52010.87
     GW BOUNDARY FLOW =          95596.36       GW BOUNDARY FLOW =            655.14

   INFLOWS - OUTFLOWS =        5972300.87     INFLOWS - OUTFLOWS =         273147.60
             --------                                   --------

 TOTAL STORAGE CHANGE =        5980242.44         STORAGE CHANGE =         273151.31
       --------------                             --------------
         LAND SURFACE =        4984244.21           LAND SURFACE =         286368.61
            SOIL ZONE =        2697055.37              SOIL ZONE =         -43259.33
     UNSATURATED ZONE =       -1063482.63       UNSATURATED ZONE =          27623.98
       SATURATED ZONE =        -637574.51         SATURATED ZONE =           2418.05

 OVERALL BUDGET ERROR =          -7941.57           BUDGET ERROR =             -3.71


  PERCENT DISCREPANCY =             -0.06    PERCENT DISCREPANCY =             -0.00



1
 SUMMARY VOLUMETRIC BUDGET FOR GSFLOW 
 DATE: 03 03 1981              CUMULATIVE TIME STEP:     154
 MODFLOW STRESS PERIOD      2     CURRENT TIME STEP:     154     ITERATIONS:      11

 -----------------------------------------------------------------------------------

   CUMULATIVE VOLUMES               L**3   RATES FOR THIS TIME STEP           L**3/T
   ------------------                      ------------------------

                                     IN                                         IN
                                     --                                         --
        PRECIPITATION =        1.3447D+07          PRECIPITATION =                  
           STREAMFLOW =                               STREAMFLOW =                  
     GW BOUNDARY FLOW =                         GW BOUNDARY FLOW =                  


                                    OUT                                        OUT
                                    ---                                        ---
   EVAPOTRANSPIRATION =        4120043.32     EVAPOTRANSPIRATION =          45353.75
           STREAMFLOW =        3375071.56             STREAMFLOW =          27755.59
     GW BOUNDARY FLOW =         100169.25       GW BOUNDARY FLOW =            652.32

   INFLOWS - OUTFLOWS =        5851318.91     INFLOWS - OUTFLOWS =         -73761.65
             --------                                   --------

 TOTAL STORAGE CHANGE =        5859147.73         STORAGE CHANGE =         -73779.52
       --------------                             --------------
         LAND SURFACE =        5068137.31           LAND SURFACE =         -66041.98
            SOIL ZONE =        2489341.06              SOIL ZONE =           2843.62
     UNSATURATED ZONE =       -1055836.34       UNSATURATED ZONE =          -8514.34
       SATURATED ZONE =        -642494.30         SATURATED ZONE =          -2066.82

 OVERALL BUDGET ERROR =          -7828.82           BUDGET ERROR =             17.87


  PERCENT DISCREPANCY =             -0.06    PERCENT DISCREPANCY =              0.02



1
 SUMMARY VOLUMETRIC BUDGET FOR GSFLOW 
 DATE: 03 10 1981              CUMULATIVE TIME STEP:     161
 MODFLOW STRESS PERIOD      2     CURRENT TIME STEP:     161     ITERATIONS:      10

 -----------------------------------------------------------------------------------

   CUMULATIVE VOLUMES               L**3   RATES FOR THIS TIME STEP           L**3/T
   ------------------                      ------------------------

                                     IN                                         IN
                                     --                                         --
        PRECIPITATION =        1.3493D+07          PRECIPITATION =                  
           STREAMFLOW =                               STREAMFLOW =                  
     GW BOUNDARY FLOW =                         GW BOUNDARY FLOW =                  


                                    OUT                                        OUT
                                    ---                                        ---
   EVAPOTRANSPIRATION =        4465832.90     EVAPOTRANSPIRATION =          72811.00
           STREAMFLOW =        3610955.90             STREAMFLOW =          43640.62
     GW BOUNDARY FLOW =         104735.29       GW BOUNDARY FLOW =            652.93

   INFLOWS - OUTFLOWS =        5311417.06     INFLOWS - OUTFLOWS =        -117104.56
             --------                                   --------

 TOTAL STORAGE CHANGE =        5319178.27         STORAGE CHANGE =        -117114.93
       --------------                             --------------
         LAND SURFACE =        4391652.97           LAND SURFACE =        -169089.79
            SOIL ZONE =        2603391.58              SOIL ZONE =          28907.11
     UNSATURATED ZONE =       -1021448.82       UNSATURATED ZONE =          23465.52
       SATURATED ZONE =        -654417.46         SATURATED ZONE =           -397.77

 OVERALL BUDGET ERROR =          -7761.21           BUDGET ERROR =             10.37


  PERCENT DISCREPANCY =             -0.06    PERCENT DISCREPANCY =              0.01



1
 SUMMARY VOLUMETRIC BUDGET FOR GSFLOW 
 DATE: 03 17 1981              CUMULATIVE TIME STEP:     168
 MODFLOW STRESS PERIOD      2     CURRENT TIME STEP:     168     ITERATIONS:       9

 -----------------------------------------------------------------------------------

   CUMULATIVE VOLUMES               L**3   RATES FOR THIS TIME STEP           L**3/T
   ------------------                      ------------------------

                                     IN                                         IN
                                     --                                         --
        PRECIPITATION =        1.3744D+07          PRECIPITATION =                  
           STREAMFLOW =                               STREAMFLOW =                  
     GW BOUNDARY FLOW =                         GW BOUNDARY FLOW =                  


                                    OUT                                        OUT
                                    ---                                        ---
   EVAPOTRANSPIRATION =        4834242.66     EVAPOTRANSPIRATION =          40234.36
           STREAMFLOW =        3837915.59             STREAMFLOW =          24123.64
     GW BOUNDARY FLOW =         109302.55       GW BOUNDARY FLOW =            651.87

   INFLOWS - OUTFLOWS =        4963030.08     INFLOWS - OUTFLOWS =         -65009.88
             --------                                   --------

 TOTAL STORAGE CHANGE =        4970702.99         STORAGE CHANGE =         -65015.79
       --------------                             --------------
         LAND SURFACE =        4202420.68           LAND SURFACE =         -39897.13
            SOIL ZONE =        2437966.46              SOIL ZONE =          -5416.38
     UNSATURATED ZONE =        -999402.87       UNSATURATED ZONE =         -15650.38
       SATURATED ZONE =        -670281.28         SATURATED ZONE =          -4051.91

 OVERALL BUDGET ERROR =          -7672.91           BUDGET ERROR =              5.91


  PERCENT DISCREPANCY =             -0.06    PERCENT DISCREPANCY =              0.01



1
 SUMMARY VOLUMETRIC BUDGET FOR GSFLOW 
 DATE: 03 24 1981              CUMULATIVE TIME STEP:     175
 MODFLOW STRESS PERIOD      2     CURRENT TIME STEP:     175     ITERATIONS:       9

 -----------------------------------------------------------------------------------

   CUMULATIVE VOLUMES               L**3   RATES FOR THIS TIME STEP           L**3/T
   ------------------                      ------------------------

                                     IN                                         IN
                                     --                                         --
        PRECIPITATION =        1.4367D+07          PRECIPITATION =                  
           STREAMFLOW =                               STREAMFLOW =                  
     GW BOUNDARY FLOW =                         GW BOUNDARY FLOW =                  


                                    OUT                                        OUT
                                    ---                                        ---
   EVAPOTRANSPIRATION =        5190019.99     EVAPOTRANSPIRATION =          87428.11
           STREAMFLOW =        4013561.53             STREAMFLOW =          26791.93
     GW BOUNDARY FLOW =         113862.98       GW BOUNDARY FLOW =            651.45

   INFLOWS - OUTFLOWS =        5049301.02     INFLOWS - OUTFLOWS =        -114871.49
             --------                                   --------

 TOTAL STORAGE CHANGE =        5057005.92         STORAGE CHANGE =        -114867.18
       --------------                             --------------
         LAND SURFACE =        4477696.12           LAND SURFACE =         -65035.10
            SOIL ZONE =        2350760.97              SOIL ZONE =         -41060.97
     UNSATURATED ZONE =       -1068621.08       UNSATURATED ZONE =          -3965.26
       SATURATED ZONE =        -702830.09         SATURATED ZONE =          -4805.85

 OVERALL BUDGET ERROR =          -7704.90           BUDGET ERROR =             -4.31


  PERCENT DISCREPANCY =             -0.05    PERCENT DISCREPANCY =             -0.00



1
 SUMMARY VOLUMETRIC BUDGET FOR GSFLOW 
 DATE: 03 31 1981              CUMULATIVE TIME STEP:     182
 MODFLOW STRESS PERIOD      2     CURRENT TIME STEP:     182     ITERATIONS:      12

 -----------------------------------------------------------------------------------

   CUMULATIVE VOLUMES               L**3   RATES FOR THIS TIME STEP           L**3/T
   ------------------                      ------------------------

                                     IN                                         IN
                                     --                                         --
        PRECIPITATION =        1.5777D+07          PRECIPITATION =                  
           STREAMFLOW =                               STREAMFLOW =                  
     GW BOUNDARY FLOW =                         GW BOUNDARY FLOW =                  


                                    OUT                                        OUT
                                    ---                                        ---
   EVAPOTRANSPIRATION =        5619957.39     EVAPOTRANSPIRATION =          54090.27
           STREAMFLOW =        4522345.40             STREAMFLOW =          37103.93
     GW BOUNDARY FLOW =         118444.98       GW BOUNDARY FLOW =            653.60

   INFLOWS - OUTFLOWS =        5516000.22     INFLOWS - OUTFLOWS =         -91847.79
             --------                                   --------

 TOTAL STORAGE CHANGE =        5523635.59         STORAGE CHANGE =         -91863.50
       --------------                             --------------
         LAND SURFACE =        4494242.72           LAND SURFACE =         -55488.75
            SOIL ZONE =        2547234.73              SOIL ZONE =         -41751.75
     UNSATURATED ZONE =        -823302.62       UNSATURATED ZONE =           5944.56
       SATURATED ZONE =        -694539.24         SATURATED ZONE =           -567.56

 OVERALL BUDGET ERROR =          -7635.37           BUDGET ERROR =             15.71


  PERCENT DISCREPANCY =             -0.05    PERCENT DISCREPANCY =              0.02



1
 SUMMARY VOLUMETRIC BUDGET FOR GSFLOW 
 DATE: 04 07 1981              CUMULATIVE TIME STEP:     189
 MODFLOW STRESS PERIOD      2     CURRENT TIME STEP:     189     ITERATIONS:      10

 -----------------------------------------------------------------------------------

   CUMULATIVE VOLUMES               L**3   RATES FOR THIS TIME STEP           L**3/T
   ------------------                      ------------------------

                                     IN                                         IN
                                     --                                         --
        PRECIPITATION =        1.6121D+07          PRECIPITATION =                  
           STREAMFLOW =                               STREAMFLOW =                  
     GW BOUNDARY FLOW =                         GW BOUNDARY FLOW =                  


                                    OUT                                        OUT
                                    ---                                        ---
   EVAPOTRANSPIRATION =        6246023.63     EVAPOTRANSPIRATION =         103845.38
           STREAMFLOW =        4840630.95             STREAMFLOW =          43395.98
     GW BOUNDARY FLOW =         123020.28       GW BOUNDARY FLOW =            653.73

   INFLOWS - OUTFLOWS =        4911792.76     INFLOWS - OUTFLOWS =        -147895.09
             --------                                   --------

 TOTAL STORAGE CHANGE =        4919290.94         STORAGE CHANGE =        -147921.00
       --------------                             --------------
         LAND SURFACE =        3870170.36           LAND SURFACE =        -138668.80
            SOIL ZONE =        2478555.50              SOIL ZONE =         -20336.62
     UNSATURATED ZONE =        -738874.28       UNSATURATED ZONE =          10761.34
       SATURATED ZONE =        -690560.64         SATURATED ZONE =            323.08

 OVERALL BUDGET ERROR =          -7498.18           BUDGET ERROR =             25.90


  PERCENT DISCREPANCY =             -0.05    PERCENT DISCREPANCY =              0.02



1
 SUMMARY VOLUMETRIC BUDGET FOR GSFLOW 
 DATE: 04 14 1981              CUMULATIVE TIME STEP:     196
 MODFLOW STRESS PERIOD      2     CURRENT TIME STEP:     196     ITERATIONS:      13

 -----------------------------------------------------------------------------------

   CUMULATIVE VOLUMES               L**3   RATES FOR THIS TIME STEP           L**3/T
   ------------------                      ------------------------

                                     IN                                         IN
                                     --                                         --
        PRECIPITATION =        1.6121D+07          PRECIPITATION =                  
           STREAMFLOW =                               STREAMFLOW =                  
     GW BOUNDARY FLOW =                         GW BOUNDARY FLOW =                  


                                    OUT                                        OUT
                                    ---                                        ---
   EVAPOTRANSPIRATION =        7156713.15     EVAPOTRANSPIRATION =         191911.71
           STREAMFLOW =        5167761.78             STREAMFLOW =          55462.51
     GW BOUNDARY FLOW =         127595.66       GW BOUNDARY FLOW =            653.68

   INFLOWS - OUTFLOWS =        3669397.02     INFLOWS - OUTFLOWS =        -248027.90
             --------                                   --------

 TOTAL STORAGE CHANGE =        3676785.14         STORAGE CHANGE =        -248033.45
       --------------                             --------------
         LAND SURFACE =        2621455.97           LAND SURFACE =        -253007.68
            SOIL ZONE =        2386981.73              SOIL ZONE =         -16793.02
     UNSATURATED ZONE =        -647796.88       UNSATURATED ZONE =          19711.64
       SATURATED ZONE =        -683855.67         SATURATED ZONE =           2055.61

 OVERALL BUDGET ERROR =          -7388.12           BUDGET ERROR =              5.55


  PERCENT DISCREPANCY =             -0.05    PERCENT DISCREPANCY =              0.00



1
 SUMMARY VOLUMETRIC BUDGET FOR GSFLOW 
 DATE: 04 21 1981              CUMULATIVE TIME STEP:     203
 MODFLOW STRESS PERIOD      2     CURRENT TIME STEP:     203     ITERATIONS:      12

 -----------------------------------------------------------------------------------

   CUMULATIVE VOLUMES               L**3   RATES FOR THIS TIME STEP           L**3/T
   ------------------                      ------------------------

                                     IN                                         IN
                                     --                                         --
        PRECIPITATION =        1.6310D+07          PRECIPITATION =                  
           STREAMFLOW =                               STREAMFLOW =                  
     GW BOUNDARY FLOW =                         GW BOUNDARY FLOW =                  


                                    OUT                                        OUT
                                    ---                                        ---
   EVAPOTRANSPIRATION =        8228675.41     EVAPOTRANSPIRATION =         152246.57
           STREAMFLOW =        5506939.07             STREAMFLOW =          45782.55
     GW BOUNDARY FLOW =         132167.10       GW BOUNDARY FLOW =            652.63

   INFLOWS - OUTFLOWS =        2442461.06     INFLOWS - OUTFLOWS =        -198681.75
             --------                                   --------

 TOTAL STORAGE CHANGE =        2449727.97         STORAGE CHANGE =        -198711.51
       --------------                             --------------
         LAND SURFACE =        1440926.25           LAND SURFACE =        -121359.42
            SOIL ZONE =        2205131.10              SOIL ZONE =         -97194.07
     UNSATURATED ZONE =        -529429.78       UNSATURATED ZONE =          16976.14
       SATURATED ZONE =        -666899.60         SATURATED ZONE =           2865.84

 OVERALL BUDGET ERROR =          -7266.91           BUDGET ERROR =             29.77


  PERCENT DISCREPANCY =             -0.04    PERCENT DISCREPANCY =              0.01



1
 SUMMARY VOLUMETRIC BUDGET FOR GSFLOW 
 DATE: 04 28 1981              CUMULATIVE TIME STEP:     210
 MODFLOW STRESS PERIOD      2     CURRENT TIME STEP:     210     ITERATIONS:      14

 -----------------------------------------------------------------------------------

   CUMULATIVE VOLUMES               L**3   RATES FOR THIS TIME STEP           L**3/T
   ------------------                      ------------------------

                                     IN                                         IN
                                     --                                         --
        PRECIPITATION =        1.6515D+07          PRECIPITATION =                  
           STREAMFLOW =                               STREAMFLOW =                  
     GW BOUNDARY FLOW =                         GW BOUNDARY FLOW =                  


                                    OUT                                        OUT
                                    ---                                        ---
   EVAPOTRANSPIRATION =        9467139.60     EVAPOTRANSPIRATION =         200395.15
           STREAMFLOW =        5719017.95             STREAMFLOW =          24666.60
     GW BOUNDARY FLOW =         136726.59       GW BOUNDARY FLOW =            650.47

   INFLOWS - OUTFLOWS =        1192548.75     INFLOWS - OUTFLOWS =        -225712.22
             --------                                   --------

 TOTAL STORAGE CHANGE =        1199704.13         STORAGE CHANGE =        -225730.21
       --------------                             --------------
         LAND SURFACE =         691530.95           LAND SURFACE =         -83509.90
            SOIL ZONE =        1694929.32              SOIL ZONE =        -138423.17
     UNSATURATED ZONE =        -527339.74       UNSATURATED ZONE =          -4061.75
       SATURATED ZONE =        -659416.39         SATURATED ZONE =            264.61

 OVERALL BUDGET ERROR =          -7155.38           BUDGET ERROR =             18.00


  PERCENT DISCREPANCY =             -0.04    PERCENT DISCREPANCY =              0.01



1
 SUMMARY VOLUMETRIC BUDGET FOR GSFLOW 
 DATE: 05 05 1981              CUMULATIVE TIME STEP:     217
 MODFLOW STRESS PERIOD      2     CURRENT TIME STEP:     217     ITERATIONS:      13

 -----------------------------------------------------------------------------------

   CUMULATIVE VOLUMES               L**3   RATES FOR THIS TIME STEP           L**3/T
   ------------------                      ------------------------

                                     IN                                         IN
                                     --                                         --
        PRECIPITATION =        1.6515D+07          PRECIPITATION =                  
           STREAMFLOW =                               STREAMFLOW =                  
     GW BOUNDARY FLOW =                         GW BOUNDARY FLOW =                  


                                    OUT                                        OUT
                                    ---                                        ---
   EVAPOTRANSPIRATION =        1.0318D+07     EVAPOTRANSPIRATION =          47812.20
           STREAMFLOW =        5824916.67             STREAMFLOW =          10857.84
     GW BOUNDARY FLOW =         141273.00       GW BOUNDARY FLOW =            648.80

   INFLOWS - OUTFLOWS =         231356.13     INFLOWS - OUTFLOWS =         -59318.84
             --------                                   --------

 TOTAL STORAGE CHANGE =         238457.35         STORAGE CHANGE =         -59311.91
       --------------                             --------------
         LAND SURFACE =         347350.76           LAND SURFACE =         -17502.06
            SOIL ZONE =        1187016.05              SOIL ZONE =         -23041.61
     UNSATURATED ZONE =        -623343.87       UNSATURATED ZONE =         -15747.97
       SATURATED ZONE =        -672565.59         SATURATED ZONE =          -3020.28

 OVERALL BUDGET ERROR =          -7101.22           BUDGET ERROR =             -6.93


  PERCENT DISCREPANCY =             -0.04    PERCENT DISCREPANCY =             -0.01



1
 SUMMARY VOLUMETRIC BUDGET FOR GSFLOW 
 DATE: 05 12 1981              CUMULATIVE TIME STEP:     224
 MODFLOW STRESS PERIOD      2     CURRENT TIME STEP:     224     ITERATIONS:      18

 -----------------------------------------------------------------------------------

   CUMULATIVE VOLUMES               L**3   RATES FOR THIS TIME STEP           L**3/T
   ------------------                      ------------------------

                                     IN                                         IN
                                     --                                         --
        PRECIPITATION =        1.6515D+07          PRECIPITATION =                  
           STREAMFLOW =                               STREAMFLOW =                  
     GW BOUNDARY FLOW =                         GW BOUNDARY FLOW =                  


                                    OUT                                        OUT
                                    ---                                        ---
   EVAPOTRANSPIRATION =        1.0809D+07     EVAPOTRANSPIRATION =          90794.77
           STREAMFLOW =        5895973.98             STREAMFLOW =          10476.95
     GW BOUNDARY FLOW =         145811.67       GW BOUNDARY FLOW =            648.22

   INFLOWS - OUTFLOWS =        -335302.89     INFLOWS - OUTFLOWS =        -101919.94
             --------                                   --------

 TOTAL STORAGE CHANGE =        -328204.76         STORAGE CHANGE =        -101919.44
       --------------                             --------------
         LAND SURFACE =         198678.97           LAND SURFACE =         -25500.84
            SOIL ZONE =         903442.06              SOIL ZONE =         -57626.06
     UNSATURATED ZONE =        -728121.33       UNSATURATED ZONE =         -13419.32
       SATURATED ZONE =        -702204.46         SATURATED ZONE =          -5373.22

 OVERALL BUDGET ERROR =          -7098.13           BUDGET ERROR =             -0.50


  PERCENT DISCREPANCY =             -0.04    PERCENT DISCREPANCY =             -0.00



1
 SUMMARY VOLUMETRIC BUDGET FOR GSFLOW 
 DATE: 05 19 1981              CUMULATIVE TIME STEP:     231
 MODFLOW STRESS PERIOD      2     CURRENT TIME STEP:     231     ITERATIONS:      17

 -----------------------------------------------------------------------------------

   CUMULATIVE VOLUMES               L**3   RATES FOR THIS TIME STEP           L**3/T
   ------------------                      ------------------------

                                     IN                                         IN
                                     --                                         --
        PRECIPITATION =        1.7837D+07          PRECIPITATION =         169045.43
           STREAMFLOW =                               STREAMFLOW =                  
     GW BOUNDARY FLOW =                         GW BOUNDARY FLOW =                  


                                    OUT                                        OUT
                                    ---                                        ---
   EVAPOTRANSPIRATION =        1.1152D+07     EVAPOTRANSPIRATION =          32129.65
           STREAMFLOW =        6026999.02             STREAMFLOW =          27331.02
     GW BOUNDARY FLOW =         150351.18       GW BOUNDARY FLOW =            649.57

   INFLOWS - OUTFLOWS =         507423.25     INFLOWS - OUTFLOWS =         108935.18
             --------                                   --------

 TOTAL STORAGE CHANGE =         514526.06         STORAGE CHANGE =         108935.10
       --------------                             --------------
         LAND SURFACE =         167097.84           LAND SURFACE =           4534.24
            SOIL ZONE =        1884126.45              SOIL ZONE =         110166.97
     UNSATURATED ZONE =        -795570.19       UNSATURATED ZONE =           -525.19
       SATURATED ZONE =        -741128.05         SATURATED ZONE =          -5240.91

 OVERALL BUDGET ERROR =          -7102.81           BUDGET ERROR =              0.08


  PERCENT DISCREPANCY =             -0.04    PERCENT DISCREPANCY =              0.00



1
 SUMMARY VOLUMETRIC BUDGET FOR GSFLOW 
 DATE: 05 26 1981              CUMULATIVE TIME STEP:     238
 MODFLOW STRESS PERIOD      2     CURRENT TIME STEP:     238     ITERATIONS:      14

 -----------------------------------------------------------------------------------

   CUMULATIVE VOLUMES               L**3   RATES FOR THIS TIME STEP           L**3/T
   ------------------                      ------------------------

                                     IN                                         IN
                                     --                                         --
        PRECIPITATION =        1.8252D+07          PRECIPITATION =         284303.67
           STREAMFLOW =                               STREAMFLOW =                  
     GW BOUNDARY FLOW =                         GW BOUNDARY FLOW =                  


                                    OUT                                        OUT
                                    ---                                        ---
   EVAPOTRANSPIRATION =        1.1981D+07     EVAPOTRANSPIRATION =         133987.99
           STREAMFLOW =        6140422.57             STREAMFLOW =          19479.21
     GW BOUNDARY FLOW =         154892.64       GW BOUNDARY FLOW =            648.54

   INFLOWS - OUTFLOWS =         -23999.48     INFLOWS - OUTFLOWS =         130187.94
             --------                                   --------

 TOTAL STORAGE CHANGE =         -16894.14         STORAGE CHANGE =         130195.22
       --------------                             --------------
         LAND SURFACE =          96880.50           LAND SURFACE =          -7049.94
            SOIL ZONE =        1526853.10              SOIL ZONE =         154554.88
     UNSATURATED ZONE =        -852198.95       UNSATURATED ZONE =         -10637.17
       SATURATED ZONE =        -788428.79         SATURATED ZONE =          -6672.55

 OVERALL BUDGET ERROR =          -7105.34           BUDGET ERROR =             -7.28


  PERCENT DISCREPANCY =             -0.04    PERCENT DISCREPANCY =             -0.00



1
 SUMMARY VOLUMETRIC BUDGET FOR GSFLOW 
 DATE: 06 02 1981              CUMULATIVE TIME STEP:     245
 MODFLOW STRESS PERIOD      2     CURRENT TIME STEP:     245     ITERATIONS:      14

 -----------------------------------------------------------------------------------

   CUMULATIVE VOLUMES               L**3   RATES FOR THIS TIME STEP           L**3/T
   ------------------                      ------------------------

                                     IN                                         IN
                                     --                                         --
        PRECIPITATION =        1.8318D+07          PRECIPITATION =          50869.96
           STREAMFLOW =                               STREAMFLOW =                  
     GW BOUNDARY FLOW =                         GW BOUNDARY FLOW =                  


                                    OUT                                        OUT
                                    ---                                        ---
   EVAPOTRANSPIRATION =        1.2776D+07     EVAPOTRANSPIRATION =          68974.12
           STREAMFLOW =        6211156.61             STREAMFLOW =           7782.40
     GW BOUNDARY FLOW =         159427.97       GW BOUNDARY FLOW =            647.45

   INFLOWS - OUTFLOWS =        -828709.26     INFLOWS - OUTFLOWS =         -26534.00
             --------                                   --------

 TOTAL STORAGE CHANGE =        -821596.64         STORAGE CHANGE =         -26537.50
       --------------                             --------------
         LAND SURFACE =          61812.20           LAND SURFACE =          30830.75
            SOIL ZONE =         901589.46              SOIL ZONE =         -35336.86
     UNSATURATED ZONE =        -939540.26       UNSATURATED ZONE =         -13581.05
       SATURATED ZONE =        -845458.04         SATURATED ZONE =          -8450.34

 OVERALL BUDGET ERROR =          -7112.61           BUDGET ERROR =              3.49


  PERCENT DISCREPANCY =             -0.04    PERCENT DISCREPANCY =              0.00



1
 SUMMARY VOLUMETRIC BUDGET FOR GSFLOW 
 DATE: 06 09 1981              CUMULATIVE TIME STEP:     252
 MODFLOW STRESS PERIOD      2     CURRENT TIME STEP:     252     ITERATIONS:      13

 -----------------------------------------------------------------------------------

   CUMULATIVE VOLUMES               L**3   RATES FOR THIS TIME STEP           L**3/T
   ------------------                      ------------------------

                                     IN                                         IN
                                     --                                         --
        PRECIPITATION =        1.8318D+07          PRECIPITATION =                  
           STREAMFLOW =                               STREAMFLOW =                  
     GW BOUNDARY FLOW =                         GW BOUNDARY FLOW =                  


                                    OUT                                        OUT
                                    ---                                        ---
   EVAPOTRANSPIRATION =        1.3269D+07     EVAPOTRANSPIRATION =          51443.45
           STREAMFLOW =        6258975.97             STREAMFLOW =           6425.21
     GW BOUNDARY FLOW =         163957.91       GW BOUNDARY FLOW =            646.96

   INFLOWS - OUTFLOWS =       -1373955.63     INFLOWS - OUTFLOWS =         -58515.62
             --------                                   --------

 TOTAL STORAGE CHANGE =       -1366811.50         STORAGE CHANGE =         -58515.97
       --------------                             --------------
         LAND SURFACE =           8252.08           LAND SURFACE =          -1595.17
            SOIL ZONE =         565112.60              SOIL ZONE =         -34710.77
     UNSATURATED ZONE =       -1032939.53       UNSATURATED ZONE =         -13196.05
       SATURATED ZONE =        -907236.65         SATURATED ZONE =          -9013.97

 OVERALL BUDGET ERROR =          -7144.13           BUDGET ERROR =              0.35


  PERCENT DISCREPANCY =             -0.04    PERCENT DISCREPANCY =              0.00



1
 SUMMARY VOLUMETRIC BUDGET FOR GSFLOW 
 DATE: 06 16 1981              CUMULATIVE TIME STEP:     259
 MODFLOW STRESS PERIOD      2     CURRENT TIME STEP:     259     ITERATIONS:      17

 -----------------------------------------------------------------------------------

   CUMULATIVE VOLUMES               L**3   RATES FOR THIS TIME STEP           L**3/T
   ------------------                      ------------------------

                                     IN                                         IN
                                     --                                         --
        PRECIPITATION =        1.8318D+07          PRECIPITATION =                  
           STREAMFLOW =                               STREAMFLOW =                  
     GW BOUNDARY FLOW =                         GW BOUNDARY FLOW =                  


                                    OUT                                        OUT
                                    ---                                        ---
   EVAPOTRANSPIRATION =        1.3461D+07     EVAPOTRANSPIRATION =          45201.82
           STREAMFLOW =        6302661.23             STREAMFLOW =           6173.73
     GW BOUNDARY FLOW =         168485.71       GW BOUNDARY FLOW =            646.75

   INFLOWS - OUTFLOWS =       -1613463.85     INFLOWS - OUTFLOWS =         -52022.30
             --------                                   --------

 TOTAL STORAGE CHANGE =       -1606279.58         STORAGE CHANGE =         -52017.92
       --------------                             --------------
         LAND SURFACE =           3425.60           LAND SURFACE =           -943.52
            SOIL ZONE =         484635.95              SOIL ZONE =         -29185.60
     UNSATURATED ZONE =       -1122917.54       UNSATURATED ZONE =         -12612.93
       SATURATED ZONE =        -971423.60         SATURATED ZONE =          -9275.86

 OVERALL BUDGET ERROR =          -7184.26           BUDGET ERROR =             -4.38


  PERCENT DISCREPANCY =             -0.04    PERCENT DISCREPANCY =             -0.01



1
 SUMMARY VOLUMETRIC BUDGET FOR GSFLOW 
 DATE: 06 23 1981              CUMULATIVE TIME STEP:     266
 MODFLOW STRESS PERIOD      2     CURRENT TIME STEP:     266     ITERATIONS:      14

 -----------------------------------------------------------------------------------

   CUMULATIVE VOLUMES               L**3   RATES FOR THIS TIME STEP           L**3/T
   ------------------                      ------------------------

                                     IN                                         IN
                                     --                                         --
        PRECIPITATION =        1.8318D+07          PRECIPITATION =                  
           STREAMFLOW =                               STREAMFLOW =                  
     GW BOUNDARY FLOW =                         GW BOUNDARY FLOW =                  


                                    OUT                                        OUT
                                    ---                                        ---
   EVAPOTRANSPIRATION =        1.3758D+07     EVAPOTRANSPIRATION =          34785.89
           STREAMFLOW =        6344794.77             STREAMFLOW =           5940.94
     GW BOUNDARY FLOW =         173012.23       GW BOUNDARY FLOW =            646.57

   INFLOWS - OUTFLOWS =       -1957934.08     INFLOWS - OUTFLOWS =         -41373.41
             --------                                   --------

 TOTAL STORAGE CHANGE =       -1950725.32         STORAGE CHANGE =         -41366.75
       --------------                             --------------
         LAND SURFACE =                             LAND SURFACE =                  
            SOIL ZONE =         295645.13              SOIL ZONE =         -19770.87
     UNSATURATED ZONE =       -1208413.31       UNSATURATED ZONE =         -11796.06
       SATURATED ZONE =       -1037957.14         SATURATED ZONE =          -9799.83

 OVERALL BUDGET ERROR =          -7208.76           BUDGET ERROR =             -6.65


  PERCENT DISCREPANCY =             -0.04    PERCENT DISCREPANCY =             -0.02



1
 SUMMARY VOLUMETRIC BUDGET FOR GSFLOW 
 DATE: 06 30 1981              CUMULATIVE TIME STEP:     273
 MODFLOW STRESS PERIOD      2     CURRENT TIME STEP:     273     ITERATIONS:       9

 -----------------------------------------------------------------------------------

   CUMULATIVE VOLUMES               L**3   RATES FOR THIS TIME STEP           L**3/T
   ------------------                      ------------------------

                                     IN                                         IN
[...]
   ------------------                      ------------------------

                                     IN                                         IN
                                     --                                         --
        PRECIPITATION =        4.6511D+08          PRECIPITATION =                  
           STREAMFLOW =                               STREAMFLOW =                  
     GW BOUNDARY FLOW =                         GW BOUNDARY FLOW =                  


                                    OUT                                        OUT
                                    ---                                        ---
   EVAPOTRANSPIRATION =        2.8410D+08     EVAPOTRANSPIRATION =          30463.30
           STREAMFLOW =        1.8493D+08             STREAMFLOW =           6864.55
     GW BOUNDARY FLOW =        3740911.34       GW BOUNDARY FLOW =            650.45

   INFLOWS - OUTFLOWS =       -7661955.91     INFLOWS - OUTFLOWS =         -37978.31
             --------                                   --------

 TOTAL STORAGE CHANGE =       -7560312.00         STORAGE CHANGE =         -38006.20
       --------------                             --------------
         LAND SURFACE =          55405.90           LAND SURFACE =          -3487.93
            SOIL ZONE =         183198.06              SOIL ZONE =         -13175.96
     UNSATURATED ZONE =        4927420.90       UNSATURATED ZONE =         -26931.55
       SATURATED ZONE =       -1.2726D+07         SATURATED ZONE =           5589.24

 OVERALL BUDGET ERROR =        -101643.91           BUDGET ERROR =             27.89


  PERCENT DISCREPANCY =             -0.02    PERCENT DISCREPANCY =              0.07



1
 SUMMARY VOLUMETRIC BUDGET FOR GSFLOW 
 DATE: 08 06 1996              CUMULATIVE TIME STEP:    5789
 MODFLOW STRESS PERIOD      2     CURRENT TIME STEP:    5789     ITERATIONS:      15

 -----------------------------------------------------------------------------------

   CUMULATIVE VOLUMES               L**3   RATES FOR THIS TIME STEP           L**3/T
   ------------------                      ------------------------

                                     IN                                         IN
                                     --                                         --
        PRECIPITATION =        4.6511D+08          PRECIPITATION =                  
           STREAMFLOW =                               STREAMFLOW =                  
     GW BOUNDARY FLOW =                         GW BOUNDARY FLOW =                  


                                    OUT                                        OUT
                                    ---                                        ---
   EVAPOTRANSPIRATION =        2.8425D+08     EVAPOTRANSPIRATION =          21522.25
           STREAMFLOW =        1.8498D+08             STREAMFLOW =           6655.99
     GW BOUNDARY FLOW =        3745464.33       GW BOUNDARY FLOW =            650.38

   INFLOWS - OUTFLOWS =       -7860155.08     INFLOWS - OUTFLOWS =         -28828.62
             --------                                   --------

 TOTAL STORAGE CHANGE =       -7758612.25         STORAGE CHANGE =         -28838.24
       --------------                             --------------
         LAND SURFACE =          37062.04           LAND SURFACE =          -2253.66
            SOIL ZONE =         151300.35              SOIL ZONE =          -5569.08
     UNSATURATED ZONE =        4742318.02       UNSATURATED ZONE =         -26040.34
       SATURATED ZONE =       -1.2689D+07         SATURATED ZONE =           5024.84

 OVERALL BUDGET ERROR =        -101542.83           BUDGET ERROR =              9.62


  PERCENT DISCREPANCY =             -0.02    PERCENT DISCREPANCY =              0.03



1
 SUMMARY VOLUMETRIC BUDGET FOR GSFLOW 
 DATE: 08 13 1996              CUMULATIVE TIME STEP:    5796
 MODFLOW STRESS PERIOD      2     CURRENT TIME STEP:    5796     ITERATIONS:      14

 -----------------------------------------------------------------------------------

   CUMULATIVE VOLUMES               L**3   RATES FOR THIS TIME STEP           L**3/T
   ------------------                      ------------------------

                                     IN                                         IN
                                     --                                         --
        PRECIPITATION =        4.6531D+08          PRECIPITATION =          54454.08
           STREAMFLOW =                               STREAMFLOW =                  
     GW BOUNDARY FLOW =                         GW BOUNDARY FLOW =                  


                                    OUT                                        OUT
                                    ---                                        ---
   EVAPOTRANSPIRATION =        2.8442D+08     EVAPOTRANSPIRATION =          31777.90
           STREAMFLOW =        1.8503D+08             STREAMFLOW =           7867.48
     GW BOUNDARY FLOW =        3750016.52       GW BOUNDARY FLOW =            650.33

   INFLOWS - OUTFLOWS =       -7887280.54     INFLOWS - OUTFLOWS =          14158.37
             --------                                   --------

 TOTAL STORAGE CHANGE =       -7785827.41         STORAGE CHANGE =          14136.88
       --------------                             --------------
         LAND SURFACE =          53162.52           LAND SURFACE =          -2312.39
            SOIL ZONE =         253630.97              SOIL ZONE =          37078.11
     UNSATURATED ZONE =        4566442.72       UNSATURATED ZONE =         -24488.14
       SATURATED ZONE =       -1.2659D+07         SATURATED ZONE =           3859.30

 OVERALL BUDGET ERROR =        -101453.13           BUDGET ERROR =             21.49


  PERCENT DISCREPANCY =             -0.02    PERCENT DISCREPANCY =              0.04



1
 SUMMARY VOLUMETRIC BUDGET FOR GSFLOW 
 DATE: 08 20 1996              CUMULATIVE TIME STEP:    5803
 MODFLOW STRESS PERIOD      2     CURRENT TIME STEP:    5803     ITERATIONS:      14

 -----------------------------------------------------------------------------------

   CUMULATIVE VOLUMES               L**3   RATES FOR THIS TIME STEP           L**3/T
   ------------------                      ------------------------

                                     IN                                         IN
                                     --                                         --
        PRECIPITATION =        4.6531D+08          PRECIPITATION =                  
           STREAMFLOW =                               STREAMFLOW =                  
     GW BOUNDARY FLOW =                         GW BOUNDARY FLOW =                  


                                    OUT                                        OUT
                                    ---                                        ---
   EVAPOTRANSPIRATION =        2.8462D+08     EVAPOTRANSPIRATION =          17559.22
           STREAMFLOW =        1.8507D+08             STREAMFLOW =           6458.35
     GW BOUNDARY FLOW =        3754567.20       GW BOUNDARY FLOW =            649.92

   INFLOWS - OUTFLOWS =       -8136382.98     INFLOWS - OUTFLOWS =         -24667.49
             --------                                   --------

 TOTAL STORAGE CHANGE =       -8035049.28         STORAGE CHANGE =         -24682.02
       --------------                             --------------
         LAND SURFACE =           6921.38           LAND SURFACE =          -1297.31
            SOIL ZONE =         194823.07              SOIL ZONE =          -2900.12
     UNSATURATED ZONE =        4399537.44       UNSATURATED ZONE =         -23311.03
       SATURATED ZONE =       -1.2636D+07         SATURATED ZONE =           2826.44

 OVERALL BUDGET ERROR =        -101333.70           BUDGET ERROR =             14.54


  PERCENT DISCREPANCY =             -0.02    PERCENT DISCREPANCY =              0.06



1
 SUMMARY VOLUMETRIC BUDGET FOR GSFLOW 
 DATE: 08 27 1996              CUMULATIVE TIME STEP:    5810
 MODFLOW STRESS PERIOD      2     CURRENT TIME STEP:    5810     ITERATIONS:      12

 -----------------------------------------------------------------------------------

   CUMULATIVE VOLUMES               L**3   RATES FOR THIS TIME STEP           L**3/T
   ------------------                      ------------------------

                                     IN                                         IN
                                     --                                         --
        PRECIPITATION =        4.6531D+08          PRECIPITATION =                  
           STREAMFLOW =                               STREAMFLOW =                  
     GW BOUNDARY FLOW =                         GW BOUNDARY FLOW =                  


                                    OUT                                        OUT
                                    ---                                        ---
   EVAPOTRANSPIRATION =        2.8476D+08     EVAPOTRANSPIRATION =          15675.27
           STREAMFLOW =        1.8512D+08             STREAMFLOW =           6297.17
     GW BOUNDARY FLOW =        3759115.14       GW BOUNDARY FLOW =            649.54

   INFLOWS - OUTFLOWS =       -8325662.55     INFLOWS - OUTFLOWS =         -22621.98
             --------                                   --------

 TOTAL STORAGE CHANGE =       -8224479.67         STORAGE CHANGE =         -22651.77
       --------------                             --------------
         LAND SURFACE =           1243.96           LAND SURFACE =           -271.65
            SOIL ZONE =         153506.29              SOIL ZONE =          -2128.39
     UNSATURATED ZONE =        4240258.01       UNSATURATED ZONE =         -22213.88
       SATURATED ZONE =       -1.2619D+07         SATURATED ZONE =           1962.16

 OVERALL BUDGET ERROR =        -101182.88           BUDGET ERROR =             29.78


  PERCENT DISCREPANCY =             -0.02    PERCENT DISCREPANCY =              0.13



1
 SUMMARY VOLUMETRIC BUDGET FOR GSFLOW 
 DATE: 09 03 1996              CUMULATIVE TIME STEP:    5817
 MODFLOW STRESS PERIOD      2     CURRENT TIME STEP:    5817     ITERATIONS:      12

 -----------------------------------------------------------------------------------

   CUMULATIVE VOLUMES               L**3   RATES FOR THIS TIME STEP           L**3/T
   ------------------                      ------------------------

                                     IN                                         IN
                                     --                                         --
        PRECIPITATION =        4.6531D+08          PRECIPITATION =                  
           STREAMFLOW =                               STREAMFLOW =                  
     GW BOUNDARY FLOW =                         GW BOUNDARY FLOW =                  


                                    OUT                                        OUT
                                    ---                                        ---
   EVAPOTRANSPIRATION =        2.8487D+08     EVAPOTRANSPIRATION =          12598.89
           STREAMFLOW =        1.8516D+08             STREAMFLOW =           6192.47
     GW BOUNDARY FLOW =        3763660.33       GW BOUNDARY FLOW =            649.14

   INFLOWS - OUTFLOWS =       -8480541.05     INFLOWS - OUTFLOWS =         -19440.50
             --------                                   --------

 TOTAL STORAGE CHANGE =       -8379527.68         STORAGE CHANGE =         -19480.04
       --------------                             --------------
         LAND SURFACE =            583.76           LAND SURFACE =            -75.05
            SOIL ZONE =         139910.75              SOIL ZONE =            625.96
     UNSATURATED ZONE =        4085670.57       UNSATURATED ZONE =         -22037.66
       SATURATED ZONE =       -1.2606D+07         SATURATED ZONE =           2006.71

 OVERALL BUDGET ERROR =        -101013.37           BUDGET ERROR =             39.54


  PERCENT DISCREPANCY =             -0.02    PERCENT DISCREPANCY =              0.20



1
 SUMMARY VOLUMETRIC BUDGET FOR GSFLOW 
 DATE: 09 10 1996              CUMULATIVE TIME STEP:    5824
 MODFLOW STRESS PERIOD      2     CURRENT TIME STEP:    5824     ITERATIONS:      12

 -----------------------------------------------------------------------------------

   CUMULATIVE VOLUMES               L**3   RATES FOR THIS TIME STEP           L**3/T
   ------------------                      ------------------------

                                     IN                                         IN
                                     --                                         --
        PRECIPITATION =        4.6531D+08          PRECIPITATION =                  
           STREAMFLOW =                               STREAMFLOW =                  
     GW BOUNDARY FLOW =                         GW BOUNDARY FLOW =                  


                                    OUT                                        OUT
                                    ---                                        ---
   EVAPOTRANSPIRATION =        2.8495D+08     EVAPOTRANSPIRATION =          13596.16
           STREAMFLOW =        1.8520D+08             STREAMFLOW =           6100.29
     GW BOUNDARY FLOW =        3768202.75       GW BOUNDARY FLOW =            648.75

   INFLOWS - OUTFLOWS =       -8613222.69     INFLOWS - OUTFLOWS =         -20345.20
             --------                                   --------

 TOTAL STORAGE CHANGE =       -8512410.16         STORAGE CHANGE =         -20370.27
       --------------                             --------------
         LAND SURFACE =            141.35           LAND SURFACE =            -69.28
            SOIL ZONE =         146736.82              SOIL ZONE =           -502.19
     UNSATURATED ZONE =        3936281.80       UNSATURATED ZONE =         -20888.00
       SATURATED ZONE =       -1.2596D+07         SATURATED ZONE =           1089.20

 OVERALL BUDGET ERROR =        -100812.52           BUDGET ERROR =             25.07


  PERCENT DISCREPANCY =             -0.02    PERCENT DISCREPANCY =              0.12



1
 SUMMARY VOLUMETRIC BUDGET FOR GSFLOW 
 DATE: 09 17 1996              CUMULATIVE TIME STEP:    5831
 MODFLOW STRESS PERIOD      2     CURRENT TIME STEP:    5831     ITERATIONS:      12

 -----------------------------------------------------------------------------------

   CUMULATIVE VOLUMES               L**3   RATES FOR THIS TIME STEP           L**3/T
   ------------------                      ------------------------

                                     IN                                         IN
                                     --                                         --
        PRECIPITATION =        4.6637D+08          PRECIPITATION =                  
           STREAMFLOW =                               STREAMFLOW =                  
     GW BOUNDARY FLOW =                         GW BOUNDARY FLOW =                  


                                    OUT                                        OUT
                                    ---                                        ---
   EVAPOTRANSPIRATION =        2.8513D+08     EVAPOTRANSPIRATION =          58054.02
           STREAMFLOW =        1.8527D+08             STREAMFLOW =          10270.70
     GW BOUNDARY FLOW =        3772744.37       GW BOUNDARY FLOW =            649.14

   INFLOWS - OUTFLOWS =       -7807677.98     INFLOWS - OUTFLOWS =         -68973.86
             --------                                   --------

 TOTAL STORAGE CHANGE =       -7707141.42         STORAGE CHANGE =         -68995.50
       --------------                             --------------
         LAND SURFACE =           3348.24           LAND SURFACE =         -35098.95
            SOIL ZONE =        1084534.97              SOIL ZONE =         -14314.93
     UNSATURATED ZONE =        3794593.15       UNSATURATED ZONE =         -19850.17
       SATURATED ZONE =       -1.2590D+07         SATURATED ZONE =            268.54

 OVERALL BUDGET ERROR =        -100536.56           BUDGET ERROR =             21.65


  PERCENT DISCREPANCY =             -0.02    PERCENT DISCREPANCY =              0.03



1
 SUMMARY VOLUMETRIC BUDGET FOR GSFLOW 
 DATE: 09 24 1996              CUMULATIVE TIME STEP:    5838
 MODFLOW STRESS PERIOD      2     CURRENT TIME STEP:    5838     ITERATIONS:      16

 -----------------------------------------------------------------------------------

   CUMULATIVE VOLUMES               L**3   RATES FOR THIS TIME STEP           L**3/T
   ------------------                      ------------------------

                                     IN                                         IN
                                     --                                         --
        PRECIPITATION =        4.6637D+08          PRECIPITATION =                  
           STREAMFLOW =                               STREAMFLOW =                  
     GW BOUNDARY FLOW =                         GW BOUNDARY FLOW =                  


                                    OUT                                        OUT
                                    ---                                        ---
   EVAPOTRANSPIRATION =        2.8560D+08     EVAPOTRANSPIRATION =          54348.96
           STREAMFLOW =        1.8532D+08             STREAMFLOW =           6704.70
     GW BOUNDARY FLOW =        3777284.37       GW BOUNDARY FLOW =            648.23

   INFLOWS - OUTFLOWS =       -8338972.92     INFLOWS - OUTFLOWS =         -61701.90
             --------                                   --------

 TOTAL STORAGE CHANGE =       -8238595.85         STORAGE CHANGE =         -61709.64
       --------------                             --------------
         LAND SURFACE =                             LAND SURFACE =                  
            SOIL ZONE =         692800.15              SOIL ZONE =         -42320.44
     UNSATURATED ZONE =        3658256.42       UNSATURATED ZONE =         -19208.38
       SATURATED ZONE =       -1.2590D+07         SATURATED ZONE =           -180.82

 OVERALL BUDGET ERROR =        -100377.07           BUDGET ERROR =              7.74


  PERCENT DISCREPANCY =             -0.02    PERCENT DISCREPANCY =              0.01



 Number of time steps:   5844;  Number of non-convergence:   0
 MF iterations:         64646;  SZ iterations:           64577
 Average MF iterations: 11.06;  Average SZ iterations:   11.05
 Maximum MF iterations:    34;  Maximum SZ iterations:      25

mxsziter reached: 15

MF iteration distribution:      0    0    0   37  353  433  810  542  374  428
                              478  400  344  409  314  176  112  126  119  168
                              107   69   23    5    2    1    2    2    3    3
                                0    2    1    1    0    0    0    0    0    0
                                0    0    0    0    0    0    0    0    0    0
                                0    0    0    0    0    0    0    0    0    0
                                0    0    0    0    0    0    0    0    0    0
                                0    0    0    0    0    0    0    0    0    0

SZ computation distribution:    0    0    0   37  353  433  810  542  374  428
                              478  400  344  409  314  176  112  126  119  168
                              107   69   23    5   17    0    0    0    0    0
                                0    0    0    0    0    0    0    0    0    0
                                0    0    0    0    0    0    0    0    0    0
                                0    0    0    0    0    0    0    0    0    0
                                0    0    0    0    0    0    0    0    0    0
                                0    0    0    0    0    0    0    0    0    0

