1
 SUMMARY VOLUMETRIC BUDGET FOR GSFLOW 
 DATE: 10 07 1980              CUMULATIVE TIME STEP:       7
 MODFLOW STRESS PERIOD      2     CURRENT TIME STEP:       7     ITERATIONS:       6

 -----------------------------------------------------------------------------------

   CUMULATIVE VOLUMES               L**3   RATES FOR THIS TIME STEP           L**3/T
   ------------------                      ------------------------

                                     IN                                         IN
                                     --                                         --
        PRECIPITATION =                            PRECIPITATION =                  
           STREAMFLOW =                               STREAMFLOW =                  
     GW BOUNDARY FLOW =                         GW BOUNDARY FLOW =                  


                                    OUT                                        OUT
                                    ---                                        ---
   EVAPOTRANSPIRATION =          63605.84     EVAPOTRANSPIRATION =           9289.49
           STREAMFLOW =          42957.50             STREAMFLOW =           6065.76
     GW BOUNDARY FLOW =           4541.44       GW BOUNDARY FLOW =            648.70

   INFLOWS - OUTFLOWS =        -111104.78     INFLOWS - OUTFLOWS =         -16003.95
             --------                                   --------

 TOTAL STORAGE CHANGE =        -110709.17         STORAGE CHANGE =         -15943.37
       --------------                             --------------
         LAND SURFACE =                             LAND SURFACE =                  
            SOIL ZONE =          46910.14              SOIL ZONE =           6406.82
     UNSATURATED ZONE =        -144779.04       UNSATURATED ZONE =         -20361.32
       SATURATED ZONE =         -12840.27         SATURATED ZONE =          -1988.86

 OVERALL BUDGET ERROR =           -395.61           BUDGET ERROR =            -60.59


  PERCENT DISCREPANCY =             -0.36    PERCENT DISCREPANCY =             -0.38



1
 SUMMARY VOLUMETRIC BUDGET FOR GSFLOW 
 DATE: 10 14 1980              CUMULATIVE TIME STEP:      14
 MODFLOW STRESS PERIOD      2     CURRENT TIME STEP:      14     ITERATIONS:       6

 -----------------------------------------------------------------------------------

   CUMULATIVE VOLUMES               L**3   RATES FOR THIS TIME STEP           L**3/T
   ------------------                      ------------------------

                                     IN                                         IN
                                     --                                         --
        PRECIPITATION =         650779.83          PRECIPITATION =         164754.40
           STREAMFLOW =                               STREAMFLOW =                  
     GW BOUNDARY FLOW =                         GW BOUNDARY FLOW =                  


                                    OUT                                        OUT
                                    ---                                        ---
   EVAPOTRANSPIRATION =         159027.78     EVAPOTRANSPIRATION =          10554.55
           STREAMFLOW =          94506.77             STREAMFLOW =           7738.45
     GW BOUNDARY FLOW =           9082.96       GW BOUNDARY FLOW =            648.94

   INFLOWS - OUTFLOWS =         388162.33     INFLOWS - OUTFLOWS =         145812.46
             --------                                   --------

 TOTAL STORAGE CHANGE =         389001.38         STORAGE CHANGE =         145874.44
       --------------                             --------------
         LAND SURFACE =         183750.31           LAND SURFACE =         130549.56
            SOIL ZONE =         517314.21              SOIL ZONE =          37353.48
     UNSATURATED ZONE =        -284497.11       UNSATURATED ZONE =         -19625.12
       SATURATED ZONE =         -27566.03         SATURATED ZONE =          -2403.48

 OVERALL BUDGET ERROR =           -839.06           BUDGET ERROR =            -61.98


  PERCENT DISCREPANCY =             -0.13    PERCENT DISCREPANCY =             -0.04



1
 SUMMARY VOLUMETRIC BUDGET FOR GSFLOW 
 DATE: 10 21 1980              CUMULATIVE TIME STEP:      21
 MODFLOW STRESS PERIOD      2     CURRENT TIME STEP:      21     ITERATIONS:       6

 -----------------------------------------------------------------------------------

   CUMULATIVE VOLUMES               L**3   RATES FOR THIS TIME STEP           L**3/T
   ------------------                      ------------------------

                                     IN                                         IN
                                     --                                         --
        PRECIPITATION =         733157.03          PRECIPITATION =                  
           STREAMFLOW =                               STREAMFLOW =                  
     GW BOUNDARY FLOW =                         GW BOUNDARY FLOW =                  


                                    OUT                                        OUT
                                    ---                                        ---
   EVAPOTRANSPIRATION =         374214.72     EVAPOTRANSPIRATION =          30714.77
           STREAMFLOW =         146202.75             STREAMFLOW =           6989.13
     GW BOUNDARY FLOW =          13624.75       GW BOUNDARY FLOW =            648.75

   INFLOWS - OUTFLOWS =         199114.81     INFLOWS - OUTFLOWS =         -38352.65
             --------                                   --------

 TOTAL STORAGE CHANGE =         200401.48         STORAGE CHANGE =         -38284.00
       --------------                             --------------
         LAND SURFACE =                             LAND SURFACE =                  
            SOIL ZONE =         665600.97              SOIL ZONE =         -16428.91
     UNSATURATED ZONE =        -418664.31       UNSATURATED ZONE =         -18827.03
       SATURATED ZONE =         -46535.19         SATURATED ZONE =          -3028.05

 OVERALL BUDGET ERROR =          -1286.67           BUDGET ERROR =            -68.65


  PERCENT DISCREPANCY =             -0.18    PERCENT DISCREPANCY =             -0.18



1
 SUMMARY VOLUMETRIC BUDGET FOR GSFLOW 
 DATE: 10 28 1980              CUMULATIVE TIME STEP:      28
 MODFLOW STRESS PERIOD      2     CURRENT TIME STEP:      28     ITERATIONS:       6

 -----------------------------------------------------------------------------------

   CUMULATIVE VOLUMES               L**3   RATES FOR THIS TIME STEP           L**3/T
   ------------------                      ------------------------

                                     IN                                         IN
                                     --                                         --
        PRECIPITATION =        1070903.53          PRECIPITATION =                  
           STREAMFLOW =                               STREAMFLOW =                  
     GW BOUNDARY FLOW =                         GW BOUNDARY FLOW =                  


                                    OUT                                        OUT
                                    ---                                        ---
   EVAPOTRANSPIRATION =         546673.78     EVAPOTRANSPIRATION =          24800.27
           STREAMFLOW =         201241.78             STREAMFLOW =           8022.48
     GW BOUNDARY FLOW =          18166.08       GW BOUNDARY FLOW =            648.81

   INFLOWS - OUTFLOWS =         304821.88     INFLOWS - OUTFLOWS =         -33471.55
             --------                                   --------

 TOTAL STORAGE CHANGE =         306614.92         STORAGE CHANGE =         -33398.17
       --------------                             --------------
         LAND SURFACE =          20571.53           LAND SURFACE =         -29890.85
            SOIL ZONE =         902442.44              SOIL ZONE =          17979.42
     UNSATURATED ZONE =        -547250.73       UNSATURATED ZONE =         -17999.39
       SATURATED ZONE =         -69148.32         SATURATED ZONE =          -3487.35

 OVERALL BUDGET ERROR =          -1793.04           BUDGET ERROR =            -73.39


  PERCENT DISCREPANCY =             -0.17    PERCENT DISCREPANCY =             -0.22



1
 SUMMARY VOLUMETRIC BUDGET FOR GSFLOW 
 DATE: 11 04 1980              CUMULATIVE TIME STEP:      35
 MODFLOW STRESS PERIOD      2     CURRENT TIME STEP:      35     ITERATIONS:       8

 -----------------------------------------------------------------------------------

   CUMULATIVE VOLUMES               L**3   RATES FOR THIS TIME STEP           L**3/T
   ------------------                      ------------------------

                                     IN                                         IN
                                     --                                         --
        PRECIPITATION =        1070903.53          PRECIPITATION =                  
           STREAMFLOW =                               STREAMFLOW =                  
     GW BOUNDARY FLOW =                         GW BOUNDARY FLOW =                  


                                    OUT                                        OUT
                                    ---                                        ---
   EVAPOTRANSPIRATION =         814376.70     EVAPOTRANSPIRATION =          35711.10
           STREAMFLOW =         254113.91             STREAMFLOW =           7091.82
     GW BOUNDARY FLOW =          22707.14       GW BOUNDARY FLOW =            648.65

   INFLOWS - OUTFLOWS =         -20294.23     INFLOWS - OUTFLOWS =         -43451.57
             --------                                   --------

 TOTAL STORAGE CHANGE =         -18084.40         STORAGE CHANGE =         -43399.85
       --------------                             --------------
         LAND SURFACE =                             LAND SURFACE =                  
            SOIL ZONE =         748946.45              SOIL ZONE =         -21869.64
     UNSATURATED ZONE =        -670662.22       UNSATURATED ZONE =         -17362.99
       SATURATED ZONE =         -96368.64         SATURATED ZONE =          -4167.21

 OVERALL BUDGET ERROR =          -2209.83           BUDGET ERROR =            -51.72


  PERCENT DISCREPANCY =             -0.20    PERCENT DISCREPANCY =             -0.12



1
 SUMMARY VOLUMETRIC BUDGET FOR GSFLOW 
 DATE: 11 11 1980              CUMULATIVE TIME STEP:      42
 MODFLOW STRESS PERIOD      2     CURRENT TIME STEP:      42     ITERATIONS:       7

 -----------------------------------------------------------------------------------

   CUMULATIVE VOLUMES               L**3   RATES FOR THIS TIME STEP           L**3/T
   ------------------                      ------------------------

                                     IN                                         IN
                                     --                                         --
        PRECIPITATION =        1573762.54          PRECIPITATION =         255182.19
           STREAMFLOW =                               STREAMFLOW =                  
     GW BOUNDARY FLOW =                         GW BOUNDARY FLOW =                  


                                    OUT                                        OUT
                                    ---                                        ---
   EVAPOTRANSPIRATION =         998338.67     EVAPOTRANSPIRATION =          15410.74
           STREAMFLOW =         311068.64             STREAMFLOW =          10936.45
     GW BOUNDARY FLOW =          27247.98       GW BOUNDARY FLOW =            648.87

   INFLOWS - OUTFLOWS =         237107.25     INFLOWS - OUTFLOWS =         228186.14
             --------                                   --------

 TOTAL STORAGE CHANGE =         239782.87         STORAGE CHANGE =         228243.18
       --------------                             --------------
         LAND SURFACE =          76960.22           LAND SURFACE =          76747.38
            SOIL ZONE =        1078234.28              SOIL ZONE =         172100.76
     UNSATURATED ZONE =        -789154.99       UNSATURATED ZONE =         -16539.36
       SATURATED ZONE =        -126256.65         SATURATED ZONE =          -4065.59

 OVERALL BUDGET ERROR =          -2675.61           BUDGET ERROR =            -57.05


  PERCENT DISCREPANCY =             -0.17    PERCENT DISCREPANCY =             -0.02



1
 SUMMARY VOLUMETRIC BUDGET FOR GSFLOW 
 DATE: 11 18 1980              CUMULATIVE TIME STEP:      49
 MODFLOW STRESS PERIOD      2     CURRENT TIME STEP:      49     ITERATIONS:       7

 -----------------------------------------------------------------------------------

   CUMULATIVE VOLUMES               L**3   RATES FOR THIS TIME STEP           L**3/T
   ------------------                      ------------------------

                                     IN                                         IN
                                     --                                         --
        PRECIPITATION =        1573762.54          PRECIPITATION =                  
           STREAMFLOW =                               STREAMFLOW =                  
     GW BOUNDARY FLOW =                         GW BOUNDARY FLOW =                  


                                    OUT                                        OUT
                                    ---                                        ---
   EVAPOTRANSPIRATION =        1087406.81     EVAPOTRANSPIRATION =          14988.17
           STREAMFLOW =         374791.83             STREAMFLOW =           9429.56
     GW BOUNDARY FLOW =          31789.98       GW BOUNDARY FLOW =            648.88

   INFLOWS - OUTFLOWS =          79773.92     INFLOWS - OUTFLOWS =         -25066.60
             --------                                   --------

 TOTAL STORAGE CHANGE =          82995.41         STORAGE CHANGE =         -25004.19
       --------------                             --------------
         LAND SURFACE =           8139.47           LAND SURFACE =          -4965.50
            SOIL ZONE =        1136791.69              SOIL ZONE =            829.92
     UNSATURATED ZONE =        -903076.50       UNSATURATED ZONE =         -16032.73
       SATURATED ZONE =        -158859.26         SATURATED ZONE =          -4835.87

 OVERALL BUDGET ERROR =          -3221.49           BUDGET ERROR =            -62.41


  PERCENT DISCREPANCY =             -0.20    PERCENT DISCREPANCY =             -0.25



1
 SUMMARY VOLUMETRIC BUDGET FOR GSFLOW 
 DATE: 11 25 1980              CUMULATIVE TIME STEP:      56
 MODFLOW STRESS PERIOD      2     CURRENT TIME STEP:      56     ITERATIONS:       8

 -----------------------------------------------------------------------------------

   CUMULATIVE VOLUMES               L**3   RATES FOR THIS TIME STEP           L**3/T
   ------------------                      ------------------------

                                     IN                                         IN
                                     --                                         --
        PRECIPITATION =        1648816.13          PRECIPITATION =                  
           STREAMFLOW =                               STREAMFLOW =                  
     GW BOUNDARY FLOW =                         GW BOUNDARY FLOW =                  


                                    OUT                                        OUT
                                    ---                                        ---
   EVAPOTRANSPIRATION =        1162044.48     EVAPOTRANSPIRATION =           9313.15
           STREAMFLOW =         443038.98             STREAMFLOW =          10152.85
     GW BOUNDARY FLOW =          36332.39       GW BOUNDARY FLOW =            648.96

   INFLOWS - OUTFLOWS =           7400.28     INFLOWS - OUTFLOWS =         -20114.96
             --------                                   --------

 TOTAL STORAGE CHANGE =          11044.62         STORAGE CHANGE =         -20056.63
       --------------                             --------------
         LAND SURFACE =          54136.41           LAND SURFACE =          -9258.02
            SOIL ZONE =        1164546.91              SOIL ZONE =           9926.82
     UNSATURATED ZONE =       -1012768.69       UNSATURATED ZONE =         -15420.20
       SATURATED ZONE =        -194870.00         SATURATED ZONE =          -5305.23

 OVERALL BUDGET ERROR =          -3644.35           BUDGET ERROR =            -58.33


  PERCENT DISCREPANCY =             -0.22    PERCENT DISCREPANCY =             -0.29



1
 SUMMARY VOLUMETRIC BUDGET FOR GSFLOW 
 DATE: 12 02 1980              CUMULATIVE TIME STEP:      63
 MODFLOW STRESS PERIOD      2     CURRENT TIME STEP:      63     ITERATIONS:       7

 -----------------------------------------------------------------------------------

   CUMULATIVE VOLUMES               L**3   RATES FOR THIS TIME STEP           L**3/T
   ------------------                      ------------------------

                                     IN                                         IN
                                     --                                         --
        PRECIPITATION =        2076621.55          PRECIPITATION =                  
           STREAMFLOW =                               STREAMFLOW =                  
     GW BOUNDARY FLOW =                         GW BOUNDARY FLOW =                  


                                    OUT                                        OUT
                                    ---                                        ---
   EVAPOTRANSPIRATION =        1345734.04     EVAPOTRANSPIRATION =          33736.39
           STREAMFLOW =         529815.43             STREAMFLOW =          15725.49
     GW BOUNDARY FLOW =          40876.54       GW BOUNDARY FLOW =            649.48

   INFLOWS - OUTFLOWS =         160195.54     INFLOWS - OUTFLOWS =         -50111.36
             --------                                   --------

 TOTAL STORAGE CHANGE =         164239.23         STORAGE CHANGE =         -50049.34
       --------------                             --------------
         LAND SURFACE =         157031.20           LAND SURFACE =         -76789.76
            SOIL ZONE =        1351993.61              SOIL ZONE =          44090.97
     UNSATURATED ZONE =       -1114102.66       UNSATURATED ZONE =         -12812.84
       SATURATED ZONE =        -230682.92         SATURATED ZONE =          -4537.71

 OVERALL BUDGET ERROR =          -4043.68           BUDGET ERROR =            -62.02


  PERCENT DISCREPANCY =             -0.19    PERCENT DISCREPANCY =             -0.12



1
 SUMMARY VOLUMETRIC BUDGET FOR GSFLOW 
 DATE: 12 09 1980              CUMULATIVE TIME STEP:      70
 MODFLOW STRESS PERIOD      2     CURRENT TIME STEP:      70     ITERATIONS:       8

 -----------------------------------------------------------------------------------

   CUMULATIVE VOLUMES               L**3   RATES FOR THIS TIME STEP           L**3/T
   ------------------                      ------------------------

                                     IN                                         IN
                                     --                                         --
        PRECIPITATION =        4284363.63          PRECIPITATION =                  
           STREAMFLOW =                               STREAMFLOW =                  
     GW BOUNDARY FLOW =                         GW BOUNDARY FLOW =                  


                                    OUT                                        OUT
                                    ---                                        ---
   EVAPOTRANSPIRATION =        1371372.81     EVAPOTRANSPIRATION =           3258.35
           STREAMFLOW =         632188.38             STREAMFLOW =          14919.04
     GW BOUNDARY FLOW =          45423.76       GW BOUNDARY FLOW =            649.70

   INFLOWS - OUTFLOWS =        2235378.68     INFLOWS - OUTFLOWS =         -18827.09
             --------                                   --------

 TOTAL STORAGE CHANGE =        2239816.40         STORAGE CHANGE =         -18781.09
       --------------                             --------------
         LAND SURFACE =        2337504.39           LAND SURFACE =          -3258.35
            SOIL ZONE =        1384353.39              SOIL ZONE =           4693.89
     UNSATURATED ZONE =       -1212061.79       UNSATURATED ZONE =         -14206.03
       SATURATED ZONE =        -269979.59         SATURATED ZONE =          -6010.60

 OVERALL BUDGET ERROR =          -4437.72           BUDGET ERROR =            -46.00


  PERCENT DISCREPANCY =             -0.10    PERCENT DISCREPANCY =             -0.24



1
 SUMMARY VOLUMETRIC BUDGET FOR GSFLOW 
 DATE: 12 16 1980              CUMULATIVE TIME STEP:      77
 MODFLOW STRESS PERIOD      2     CURRENT TIME STEP:      77     ITERATIONS:       7

 -----------------------------------------------------------------------------------

   CUMULATIVE VOLUMES               L**3   RATES FOR THIS TIME STEP           L**3/T
   ------------------                      ------------------------

                                     IN                                         IN
                                     --                                         --
        PRECIPITATION =        4284363.63          PRECIPITATION =                  
           STREAMFLOW =                               STREAMFLOW =                  
     GW BOUNDARY FLOW =                         GW BOUNDARY FLOW =                  


                                    OUT                                        OUT
                                    ---                                        ---
   EVAPOTRANSPIRATION =        1515997.85     EVAPOTRANSPIRATION =          34476.11
           STREAMFLOW =         755855.28             STREAMFLOW =          25704.26
     GW BOUNDARY FLOW =          49972.76       GW BOUNDARY FLOW =            650.31

   INFLOWS - OUTFLOWS =        1962537.74     INFLOWS - OUTFLOWS =         -60830.67
             --------                                   --------

 TOTAL STORAGE CHANGE =        1967357.18         STORAGE CHANGE =         -60771.07
       --------------                             --------------
         LAND SURFACE =        2017009.25           LAND SURFACE =        -133032.47
            SOIL ZONE =        1561951.33              SOIL ZONE =          85365.24
     UNSATURATED ZONE =       -1301451.56       UNSATURATED ZONE =          -8793.06
       SATURATED ZONE =        -310151.84         SATURATED ZONE =          -4310.78

 OVERALL BUDGET ERROR =          -4819.44           BUDGET ERROR =            -59.61


  PERCENT DISCREPANCY =             -0.11    PERCENT DISCREPANCY =             -0.10



1
 SUMMARY VOLUMETRIC BUDGET FOR GSFLOW 
 DATE: 12 23 1980              CUMULATIVE TIME STEP:      84
 MODFLOW STRESS PERIOD      2     CURRENT TIME STEP:      84     ITERATIONS:       9

 -----------------------------------------------------------------------------------

   CUMULATIVE VOLUMES               L**3   RATES FOR THIS TIME STEP           L**3/T
   ------------------                      ------------------------

                                     IN                                         IN
                                     --                                         --
        PRECIPITATION =        4516757.54          PRECIPITATION =                  
           STREAMFLOW =                               STREAMFLOW =                  
     GW BOUNDARY FLOW =                         GW BOUNDARY FLOW =                  


                                    OUT                                        OUT
                                    ---                                        ---
   EVAPOTRANSPIRATION =        1724223.97     EVAPOTRANSPIRATION =          35848.50
           STREAMFLOW =         991036.87             STREAMFLOW =          31517.73
     GW BOUNDARY FLOW =          54533.77       GW BOUNDARY FLOW =            652.04

   INFLOWS - OUTFLOWS =        1746962.92     INFLOWS - OUTFLOWS =         -68018.27
             --------                                   --------

 TOTAL STORAGE CHANGE =        1752040.22         STORAGE CHANGE =         -67990.20
       --------------                             --------------
         LAND SURFACE =        1391476.45           LAND SURFACE =         -50626.27
            SOIL ZONE =        2035492.58              SOIL ZONE =          -8887.36
     UNSATURATED ZONE =       -1337426.21       UNSATURATED ZONE =          -4059.82
       SATURATED ZONE =        -337502.60         SATURATED ZONE =          -4416.74

 OVERALL BUDGET ERROR =          -5077.30           BUDGET ERROR =            -28.07


  PERCENT DISCREPANCY =             -0.11    PERCENT DISCREPANCY =             -0.04



1
 SUMMARY VOLUMETRIC BUDGET FOR GSFLOW 
 DATE: 12 30 1980              CUMULATIVE TIME STEP:      91
 MODFLOW STRESS PERIOD      2     CURRENT TIME STEP:      91     ITERATIONS:      11

 -----------------------------------------------------------------------------------

   CUMULATIVE VOLUMES               L**3   RATES FOR THIS TIME STEP           L**3/T
   ------------------                      ------------------------

                                     IN                                         IN
                                     --                                         --
        PRECIPITATION =        4516757.54          PRECIPITATION =                  
           STREAMFLOW =                               STREAMFLOW =                  
     GW BOUNDARY FLOW =                         GW BOUNDARY FLOW =                  


                                    OUT                                        OUT
                                    ---                                        ---
   EVAPOTRANSPIRATION =        2091946.23     EVAPOTRANSPIRATION =          47015.27
           STREAMFLOW =        1247142.03             STREAMFLOW =          28286.94
     GW BOUNDARY FLOW =          59101.44       GW BOUNDARY FLOW =            652.50

   INFLOWS - OUTFLOWS =        1118567.83     INFLOWS - OUTFLOWS =         -75954.71
             --------                                   --------

 TOTAL STORAGE CHANGE =        1123764.72         STORAGE CHANGE =         -75946.02
       --------------                             --------------
         LAND SURFACE =         579625.21           LAND SURFACE =         -42433.18
            SOIL ZONE =        2238706.94              SOIL ZONE =         -26087.08
     UNSATURATED ZONE =       -1334377.55       UNSATURATED ZONE =          -3539.06
       SATURATED ZONE =        -360189.88         SATURATED ZONE =          -3886.70

 OVERALL BUDGET ERROR =          -5196.88           BUDGET ERROR =             -8.68


  PERCENT DISCREPANCY =             -0.11    PERCENT DISCREPANCY =             -0.01



1
 SUMMARY VOLUMETRIC BUDGET FOR GSFLOW 
 DATE: 01 06 1981              CUMULATIVE TIME STEP:      98
 MODFLOW STRESS PERIOD      2     CURRENT TIME STEP:      98     ITERATIONS:       8

 -----------------------------------------------------------------------------------

   CUMULATIVE VOLUMES               L**3   RATES FOR THIS TIME STEP           L**3/T
   ------------------                      ------------------------

                                     IN                                         IN
                                     --                                         --
        PRECIPITATION =        5004445.43          PRECIPITATION =                  
           STREAMFLOW =                               STREAMFLOW =                  
     GW BOUNDARY FLOW =                         GW BOUNDARY FLOW =                  


                                    OUT                                        OUT
                                    ---                                        ---
   EVAPOTRANSPIRATION =        2309633.39     EVAPOTRANSPIRATION =          18975.60
           STREAMFLOW =        1398161.47             STREAMFLOW =          20335.33
     GW BOUNDARY FLOW =          63663.05       GW BOUNDARY FLOW =            651.18

   INFLOWS - OUTFLOWS =        1232987.51     INFLOWS - OUTFLOWS =         -39962.11
             --------                                   --------

 TOTAL STORAGE CHANGE =        1238328.17         STORAGE CHANGE =         -39930.87
       --------------                             --------------
         LAND SURFACE =         840075.39           LAND SURFACE =         -25549.72
            SOIL ZONE =        2200165.16              SOIL ZONE =           3090.71
     UNSATURATED ZONE =       -1404053.26       UNSATURATED ZONE =         -11591.06
       SATURATED ZONE =        -397859.12         SATURATED ZONE =          -5880.80

 OVERALL BUDGET ERROR =          -5340.65           BUDGET ERROR =            -31.24


  PERCENT DISCREPANCY =             -0.11    PERCENT DISCREPANCY =             -0.08



1
 SUMMARY VOLUMETRIC BUDGET FOR GSFLOW 
 DATE: 01 13 1981              CUMULATIVE TIME STEP:     105
 MODFLOW STRESS PERIOD      2     CURRENT TIME STEP:     105     ITERATIONS:       8

 -----------------------------------------------------------------------------------

   CUMULATIVE VOLUMES               L**3   RATES FOR THIS TIME STEP           L**3/T
   ------------------                      ------------------------

                                     IN                                         IN
                                     --                                         --
        PRECIPITATION =        5004445.43          PRECIPITATION =                  
           STREAMFLOW =                               STREAMFLOW =                  
     GW BOUNDARY FLOW =                         GW BOUNDARY FLOW =                  


                                    OUT                                        OUT
                                    ---                                        ---
   EVAPOTRANSPIRATION =        2511377.02     EVAPOTRANSPIRATION =          41906.73
           STREAMFLOW =        1543801.53             STREAMFLOW =          20114.36
     GW BOUNDARY FLOW =          68219.91       GW BOUNDARY FLOW =            650.83

   INFLOWS - OUTFLOWS =         881046.97     INFLOWS - OUTFLOWS =         -62671.92
             --------                                   --------

 TOTAL STORAGE CHANGE =         886592.13         STORAGE CHANGE =         -62638.80
       --------------                             --------------
         LAND SURFACE =         624161.64           LAND SURFACE =         -38673.92
            SOIL ZONE =        2177302.53              SOIL ZONE =          -8484.54
     UNSATURATED ZONE =       -1473870.65       UNSATURATED ZONE =          -9363.27
       SATURATED ZONE =        -441001.40         SATURATED ZONE =          -6117.07

 OVERALL BUDGET ERROR =          -5545.15           BUDGET ERROR =            -33.11


  PERCENT DISCREPANCY =             -0.11    PERCENT DISCREPANCY =             -0.05



1
 SUMMARY VOLUMETRIC BUDGET FOR GSFLOW 
 DATE: 01 20 1981              CUMULATIVE TIME STEP:     112
 MODFLOW STRESS PERIOD      2     CURRENT TIME STEP:     112     ITERATIONS:      11

 -----------------------------------------------------------------------------------

   CUMULATIVE VOLUMES               L**3   RATES FOR THIS TIME STEP           L**3/T
   ------------------                      ------------------------

                                     IN                                         IN
                                     --                                         --
        PRECIPITATION =        5170466.84          PRECIPITATION =          41505.35
           STREAMFLOW =                               STREAMFLOW =                  
     GW BOUNDARY FLOW =                         GW BOUNDARY FLOW =                  


                                    OUT                                        OUT
                                    ---                                        ---
   EVAPOTRANSPIRATION =        2776274.46     EVAPOTRANSPIRATION =          31075.53
           STREAMFLOW =        1686846.00             STREAMFLOW =          20142.31
     GW BOUNDARY FLOW =          72774.87       GW BOUNDARY FLOW =            650.65

   INFLOWS - OUTFLOWS =         634571.50     INFLOWS - OUTFLOWS =         -10363.15
             --------                                   --------

 TOTAL STORAGE CHANGE =         640392.60         STORAGE CHANGE =         -10348.67
       --------------                             --------------
         LAND SURFACE =         464145.88           LAND SURFACE =           8501.89
            SOIL ZONE =        2169759.07              SOIL ZONE =          -9798.71
     UNSATURATED ZONE =       -1507451.87       UNSATURATED ZONE =          -2397.27
       SATURATED ZONE =        -486060.48         SATURATED ZONE =          -6654.58

 OVERALL BUDGET ERROR =          -5821.10           BUDGET ERROR =            -14.48


  PERCENT DISCREPANCY =             -0.11    PERCENT DISCREPANCY =             -0.03



1
 SUMMARY VOLUMETRIC BUDGET FOR GSFLOW 
 DATE: 01 27 1981              CUMULATIVE TIME STEP:     119
 MODFLOW STRESS PERIOD      2     CURRENT TIME STEP:     119     ITERATIONS:       8

 -----------------------------------------------------------------------------------

   CUMULATIVE VOLUMES               L**3   RATES FOR THIS TIME STEP           L**3/T
   ------------------                      ------------------------

                                     IN                                         IN
                                     --                                         --
        PRECIPITATION =        8646540.08          PRECIPITATION =        2936503.63
           STREAMFLOW =                               STREAMFLOW =                  
     GW BOUNDARY FLOW =                         GW BOUNDARY FLOW =                  


                                    OUT                                        OUT
                                    ---                                        ---
   EVAPOTRANSPIRATION =        2998347.36     EVAPOTRANSPIRATION =          12639.57
           STREAMFLOW =        1831318.05             STREAMFLOW =          18645.26
     GW BOUNDARY FLOW =          77329.17       GW BOUNDARY FLOW =            650.43

   INFLOWS - OUTFLOWS =        3739545.50     INFLOWS - OUTFLOWS =        2904568.37
             --------                                   --------

 TOTAL STORAGE CHANGE =        3745506.49         STORAGE CHANGE =        2904594.52
       --------------                             --------------
         LAND SURFACE =        3592460.11           LAND SURFACE =        2923864.12
            SOIL ZONE =        2190149.61              SOIL ZONE =          -6280.19
     UNSATURATED ZONE =       -1505497.76       UNSATURATED ZONE =          -6120.78
       SATURATED ZONE =        -531605.47         SATURATED ZONE =          -6868.63

 OVERALL BUDGET ERROR =          -5960.99           BUDGET ERROR =            -26.15


  PERCENT DISCREPANCY =             -0.07    PERCENT DISCREPANCY =             -0.00



1
 SUMMARY VOLUMETRIC BUDGET FOR GSFLOW 
 DATE: 02 03 1981              CUMULATIVE TIME STEP:     126
 MODFLOW STRESS PERIOD      2     CURRENT TIME STEP:     126     ITERATIONS:       8

 -----------------------------------------------------------------------------------

   CUMULATIVE VOLUMES               L**3   RATES FOR THIS TIME STEP           L**3/T
   ------------------                      ------------------------

                                     IN                                         IN
                                     --                                         --
        PRECIPITATION =        1.1739D+07          PRECIPITATION =                  
           STREAMFLOW =                               STREAMFLOW =                  
     GW BOUNDARY FLOW =                         GW BOUNDARY FLOW =                  


                                    OUT                                        OUT
                                    ---                                        ---
   EVAPOTRANSPIRATION =        3033538.72     EVAPOTRANSPIRATION =           7106.06
           STREAMFLOW =        1958444.38             STREAMFLOW =          18060.89
     GW BOUNDARY FLOW =          81881.31       GW BOUNDARY FLOW =            650.26

   INFLOWS - OUTFLOWS =        6664824.36     INFLOWS - OUTFLOWS =         -25817.21
             --------                                   --------

 TOTAL STORAGE CHANGE =        6670938.02         STORAGE CHANGE =         -25790.92
       --------------                             --------------
         LAND SURFACE =        6649417.45           LAND SURFACE =          -7106.06
            SOIL ZONE =        2182100.33              SOIL ZONE =            508.74
     UNSATURATED ZONE =       -1577586.01       UNSATURATED ZONE =         -11480.82
       SATURATED ZONE =        -582993.75         SATURATED ZONE =          -7712.78

 OVERALL BUDGET ERROR =          -6113.66           BUDGET ERROR =            -26.29


  PERCENT DISCREPANCY =             -0.05    PERCENT DISCREPANCY =             -0.10



1
 SUMMARY VOLUMETRIC BUDGET FOR GSFLOW 
 DATE: 02 10 1981              CUMULATIVE TIME STEP:     133
 MODFLOW STRESS PERIOD      2     CURRENT TIME STEP:     133     ITERATIONS:       7

 -----------------------------------------------------------------------------------

   CUMULATIVE VOLUMES               L**3   RATES FOR THIS TIME STEP           L**3/T
   ------------------                      ------------------------

                                     IN                                         IN
                                     --                                         --
        PRECIPITATION =        1.1838D+07          PRECIPITATION =                  
           STREAMFLOW =                               STREAMFLOW =                  
     GW BOUNDARY FLOW =                         GW BOUNDARY FLOW =                  


                                    OUT                                        OUT
                                    ---                                        ---
   EVAPOTRANSPIRATION =        3154642.23     EVAPOTRANSPIRATION =          32343.27
           STREAMFLOW =        2085080.70             STREAMFLOW =          18110.58
     GW BOUNDARY FLOW =          86433.12       GW BOUNDARY FLOW =            650.25

   INFLOWS - OUTFLOWS =        6512097.22     INFLOWS - OUTFLOWS =         -51104.10
             --------                                   --------

 TOTAL STORAGE CHANGE =        6518533.49         STORAGE CHANGE =         -51045.17
       --------------                             --------------
         LAND SURFACE =        6627878.44           LAND SURFACE =         -32343.27
            SOIL ZONE =        2186059.79              SOIL ZONE =            523.36
     UNSATURATED ZONE =       -1655552.52       UNSATURATED ZONE =         -10796.21
       SATURATED ZONE =        -639852.22         SATURATED ZONE =          -8429.04

 OVERALL BUDGET ERROR =          -6436.27           BUDGET ERROR =            -58.94


  PERCENT DISCREPANCY =             -0.05    PERCENT DISCREPANCY =             -0.12



1
 SUMMARY VOLUMETRIC BUDGET FOR GSFLOW 
 DATE: 02 17 1981              CUMULATIVE TIME STEP:     140
 MODFLOW STRESS PERIOD      2     CURRENT TIME STEP:     140     ITERATIONS:      15

 -----------------------------------------------------------------------------------

   CUMULATIVE VOLUMES               L**3   RATES FOR THIS TIME STEP           L**3/T
   ------------------                      ------------------------

                                     IN                                         IN
                                     --                                         --
        PRECIPITATION =        1.2765D+07          PRECIPITATION =          68929.28
           STREAMFLOW =                               STREAMFLOW =                  
     GW BOUNDARY FLOW =                         GW BOUNDARY FLOW =                  


                                    OUT                                        OUT
                                    ---                                        ---
   EVAPOTRANSPIRATION =        3480409.12     EVAPOTRANSPIRATION =          59831.41
           STREAMFLOW =        2605777.61             STREAMFLOW =         121413.66
     GW BOUNDARY FLOW =          91005.98       GW BOUNDARY FLOW =            656.65

   INFLOWS - OUTFLOWS =        6587776.39     INFLOWS - OUTFLOWS =        -112972.44
             --------                                   --------

 TOTAL STORAGE CHANGE =        6594431.51         STORAGE CHANGE =        -112967.99
       --------------                             --------------
         LAND SURFACE =        5733342.74           LAND SURFACE =        -263707.47
            SOIL ZONE =        2945963.50              SOIL ZONE =          72918.01
     UNSATURATED ZONE =       -1426382.83       UNSATURATED ZONE =          75632.34
       SATURATED ZONE =        -658491.90         SATURATED ZONE =           2189.13

 OVERALL BUDGET ERROR =          -6655.12           BUDGET ERROR =             -4.46


  PERCENT DISCREPANCY =             -0.05    PERCENT DISCREPANCY =             -0.00



1
 SUMMARY VOLUMETRIC BUDGET FOR GSFLOW 
 DATE: 02 24 1981              CUMULATIVE TIME STEP:     147
 MODFLOW STRESS PERIOD      2     CURRENT TIME STEP:     147     ITERATIONS:      14

 -----------------------------------------------------------------------------------

   CUMULATIVE VOLUMES               L**3   RATES FOR THIS TIME STEP           L**3/T
   ------------------                      ------------------------

                                     IN                                         IN
                                     --                                         --
        PRECIPITATION =        1.3179D+07          PRECIPITATION =         344646.37
           STREAMFLOW =                               STREAMFLOW =                  
     GW BOUNDARY FLOW =                         GW BOUNDARY FLOW =                  


                                    OUT                                        OUT
                                    ---                                        ---
   EVAPOTRANSPIRATION =        3812785.22     EVAPOTRANSPIRATION =          18156.56
           STREAMFLOW =        3160262.97             STREAMFLOW =          50195.16
     GW BOUNDARY FLOW =          95598.63       GW BOUNDARY FLOW =            655.07

   INFLOWS - OUTFLOWS =        6109897.93     INFLOWS - OUTFLOWS =         275639.57
             --------                                   --------

 TOTAL STORAGE CHANGE =        6116477.31         STORAGE CHANGE =         275626.76
       --------------                             --------------
         LAND SURFACE =        5134001.56           LAND SURFACE =         302140.01
            SOIL ZONE =        2690487.92              SOIL ZONE =         -55972.87
     UNSATURATED ZONE =       -1071382.63       UNSATURATED ZONE =          27321.95
       SATURATED ZONE =        -636629.55         SATURATED ZONE =           2137.67

 OVERALL BUDGET ERROR =          -6579.38           BUDGET ERROR =             12.81


  PERCENT DISCREPANCY =             -0.05    PERCENT DISCREPANCY =              0.00



1
 SUMMARY VOLUMETRIC BUDGET FOR GSFLOW 
 DATE: 03 03 1981              CUMULATIVE TIME STEP:     154
 MODFLOW STRESS PERIOD      2     CURRENT TIME STEP:     154     ITERATIONS:      11

 -----------------------------------------------------------------------------------

   CUMULATIVE VOLUMES               L**3   RATES FOR THIS TIME STEP           L**3/T
   ------------------                      ------------------------

                                     IN                                         IN
                                     --                                         --
        PRECIPITATION =        1.3447D+07          PRECIPITATION =                  
           STREAMFLOW =                               STREAMFLOW =                  
     GW BOUNDARY FLOW =                         GW BOUNDARY FLOW =                  


                                    OUT                                        OUT
                                    ---                                        ---
   EVAPOTRANSPIRATION =        3959571.18     EVAPOTRANSPIRATION =          40644.00
           STREAMFLOW =        3381082.00             STREAMFLOW =          27138.44
     GW BOUNDARY FLOW =         100171.22       GW BOUNDARY FLOW =            652.27

   INFLOWS - OUTFLOWS =        6005778.64     INFLOWS - OUTFLOWS =         -68434.71
             --------                                   --------

 TOTAL STORAGE CHANGE =        6012185.26         STORAGE CHANGE =         -68459.59
       --------------                             --------------
         LAND SURFACE =        5236571.47           LAND SURFACE =         -57449.18
            SOIL ZONE =        2485032.12              SOIL ZONE =            470.34
     UNSATURATED ZONE =       -1067151.20       UNSATURATED ZONE =          -9160.72
       SATURATED ZONE =        -642267.13         SATURATED ZONE =          -2320.03

 OVERALL BUDGET ERROR =          -6406.62           BUDGET ERROR =             24.88


  PERCENT DISCREPANCY =             -0.05    PERCENT DISCREPANCY =              0.04



1
 SUMMARY VOLUMETRIC BUDGET FOR GSFLOW 
 DATE: 03 10 1981              CUMULATIVE TIME STEP:     161
 MODFLOW STRESS PERIOD      2     CURRENT TIME STEP:     161     ITERATIONS:      11

 -----------------------------------------------------------------------------------

   CUMULATIVE VOLUMES               L**3   RATES FOR THIS TIME STEP           L**3/T
   ------------------                      ------------------------

                                     IN                                         IN
                                     --                                         --
        PRECIPITATION =        1.3493D+07          PRECIPITATION =                  
           STREAMFLOW =                               STREAMFLOW =                  
     GW BOUNDARY FLOW =                         GW BOUNDARY FLOW =                  


                                    OUT                                        OUT
                                    ---                                        ---
   EVAPOTRANSPIRATION =        4271431.31     EVAPOTRANSPIRATION =          67192.35
           STREAMFLOW =        3602246.63             STREAMFLOW =          40300.18
     GW BOUNDARY FLOW =         104736.24       GW BOUNDARY FLOW =            652.70

   INFLOWS - OUTFLOWS =        5514526.97     INFLOWS - OUTFLOWS =        -108145.23
             --------                                   --------

 TOTAL STORAGE CHANGE =        5520821.43         STORAGE CHANGE =        -108159.89
       --------------                             --------------
         LAND SURFACE =        4665498.38           LAND SURFACE =        -147188.93
            SOIL ZONE =        2573553.77              SOIL ZONE =          24803.04
     UNSATURATED ZONE =       -1059876.99       UNSATURATED ZONE =          15420.74
       SATURATED ZONE =        -658353.74         SATURATED ZONE =          -1194.74

 OVERALL BUDGET ERROR =          -6294.46           BUDGET ERROR =             14.66


  PERCENT DISCREPANCY =             -0.05    PERCENT DISCREPANCY =              0.01



1
 SUMMARY VOLUMETRIC BUDGET FOR GSFLOW 
 DATE: 03 17 1981              CUMULATIVE TIME STEP:     168
 MODFLOW STRESS PERIOD      2     CURRENT TIME STEP:     168     ITERATIONS:       9

 -----------------------------------------------------------------------------------

   CUMULATIVE VOLUMES               L**3   RATES FOR THIS TIME STEP           L**3/T
   ------------------                      ------------------------

                                     IN                                         IN
                                     --                                         --
        PRECIPITATION =        1.3744D+07          PRECIPITATION =                  
           STREAMFLOW =                               STREAMFLOW =                  
     GW BOUNDARY FLOW =                         GW BOUNDARY FLOW =                  


                                    OUT                                        OUT
                                    ---                                        ---
   EVAPOTRANSPIRATION =        4588103.99     EVAPOTRANSPIRATION =          33262.65
           STREAMFLOW =        3818873.98             STREAMFLOW =          23613.36
     GW BOUNDARY FLOW =         109302.40       GW BOUNDARY FLOW =            651.78

   INFLOWS - OUTFLOWS =        5228210.52     INFLOWS - OUTFLOWS =         -57527.79
             --------                                   --------

 TOTAL STORAGE CHANGE =        5234404.54         STORAGE CHANGE =         -57539.49
       --------------                             --------------
         LAND SURFACE =        4532338.76           LAND SURFACE =         -32994.50
            SOIL ZONE =        2437557.76              SOIL ZONE =          -5001.41
     UNSATURATED ZONE =       -1056457.11       UNSATURATED ZONE =         -14848.84
       SATURATED ZONE =        -679034.87         SATURATED ZONE =          -4694.74

 OVERALL BUDGET ERROR =          -6194.02           BUDGET ERROR =             11.71


  PERCENT DISCREPANCY =             -0.05    PERCENT DISCREPANCY =              0.02



1
 SUMMARY VOLUMETRIC BUDGET FOR GSFLOW 
 DATE: 03 24 1981              CUMULATIVE TIME STEP:     175
 MODFLOW STRESS PERIOD      2     CURRENT TIME STEP:     175     ITERATIONS:       9

 -----------------------------------------------------------------------------------

   CUMULATIVE VOLUMES               L**3   RATES FOR THIS TIME STEP           L**3/T
   ------------------                      ------------------------

                                     IN                                         IN
                                     --                                         --
        PRECIPITATION =        1.4367D+07          PRECIPITATION =                  
           STREAMFLOW =                               STREAMFLOW =                  
     GW BOUNDARY FLOW =                         GW BOUNDARY FLOW =                  


                                    OUT                                        OUT
                                    ---                                        ---
   EVAPOTRANSPIRATION =        4907927.27     EVAPOTRANSPIRATION =          80764.17
           STREAMFLOW =        3983571.08             STREAMFLOW =          25036.05
     GW BOUNDARY FLOW =         113861.88       GW BOUNDARY FLOW =            651.26

   INFLOWS - OUTFLOWS =        5361385.29     INFLOWS - OUTFLOWS =        -106451.48
             --------                                   --------

 TOTAL STORAGE CHANGE =        5367545.49         STORAGE CHANGE =        -106450.34
       --------------                             --------------
         LAND SURFACE =        4882235.57           LAND SURFACE =         -56598.13
            SOIL ZONE =        2339298.71              SOIL ZONE =         -37991.55
     UNSATURATED ZONE =       -1136907.91       UNSATURATED ZONE =          -6410.26
       SATURATED ZONE =        -717080.88         SATURATED ZONE =          -5450.40

 OVERALL BUDGET ERROR =          -6160.20           BUDGET ERROR =             -1.14


  PERCENT DISCREPANCY =             -0.04    PERCENT DISCREPANCY =             -0.00



1
 SUMMARY VOLUMETRIC BUDGET FOR GSFLOW 
 DATE: 03 31 1981              CUMULATIVE TIME STEP:     182
 MODFLOW STRESS PERIOD      2     CURRENT TIME STEP:     182     ITERATIONS:      12

 -----------------------------------------------------------------------------------

   CUMULATIVE VOLUMES               L**3   RATES FOR THIS TIME STEP           L**3/T
   ------------------                      ------------------------

                                     IN                                         IN
                                     --                                         --
        PRECIPITATION =        1.5777D+07          PRECIPITATION =                  
           STREAMFLOW =                               STREAMFLOW =                  
     GW BOUNDARY FLOW =                         GW BOUNDARY FLOW =                  


                                    OUT                                        OUT
                                    ---                                        ---
   EVAPOTRANSPIRATION =        5296100.56     EVAPOTRANSPIRATION =          42424.06
           STREAMFLOW =        4431586.99             STREAMFLOW =          33655.02
     GW BOUNDARY FLOW =         118440.23       GW BOUNDARY FLOW =            653.15

   INFLOWS - OUTFLOWS =        5930620.20     INFLOWS - OUTFLOWS =         -76732.22
             --------                                   --------

 TOTAL STORAGE CHANGE =        5936680.02         STORAGE CHANGE =         -76749.98
       --------------                             --------------
         LAND SURFACE =        5101875.85           LAND SURFACE =         -42987.31
            SOIL ZONE =        2505867.37              SOIL ZONE =         -32435.15
     UNSATURATED ZONE =        -950233.07       UNSATURATED ZONE =           1113.12
       SATURATED ZONE =        -720830.13         SATURATED ZONE =          -2440.64

 OVERALL BUDGET ERROR =          -6059.81           BUDGET ERROR =             17.76


  PERCENT DISCREPANCY =             -0.04    PERCENT DISCREPANCY =              0.02



1
 SUMMARY VOLUMETRIC BUDGET FOR GSFLOW 
 DATE: 04 07 1981              CUMULATIVE TIME STEP:     189
 MODFLOW STRESS PERIOD      2     CURRENT TIME STEP:     189     ITERATIONS:      10

 -----------------------------------------------------------------------------------

   CUMULATIVE VOLUMES               L**3   RATES FOR THIS TIME STEP           L**3/T
   ------------------                      ------------------------

                                     IN                                         IN
                                     --                                         --
        PRECIPITATION =        1.6121D+07          PRECIPITATION =                  
           STREAMFLOW =                               STREAMFLOW =                  
     GW BOUNDARY FLOW =                         GW BOUNDARY FLOW =                  


                                    OUT                                        OUT
                                    ---                                        ---
   EVAPOTRANSPIRATION =        5890549.37     EVAPOTRANSPIRATION =          97287.85
           STREAMFLOW =        4726400.28             STREAMFLOW =          42143.11
     GW BOUNDARY FLOW =         123013.17       GW BOUNDARY FLOW =            653.55

   INFLOWS - OUTFLOWS =        5381504.79     INFLOWS - OUTFLOWS =        -140084.52
             --------                                   --------

 TOTAL STORAGE CHANGE =        5387439.81         STORAGE CHANGE =        -140105.87
       --------------                             --------------
         LAND SURFACE =        4536824.57           LAND SURFACE =        -138203.79
            SOIL ZONE =        2467307.13              SOIL ZONE =         -11864.71
     UNSATURATED ZONE =        -886398.95       UNSATURATED ZONE =          10707.49
       SATURATED ZONE =        -730292.95         SATURATED ZONE =           -744.86

 OVERALL BUDGET ERROR =          -5935.02           BUDGET ERROR =             21.35


  PERCENT DISCREPANCY =             -0.04    PERCENT DISCREPANCY =              0.02



1
 SUMMARY VOLUMETRIC BUDGET FOR GSFLOW 
 DATE: 04 14 1981              CUMULATIVE TIME STEP:     196
 MODFLOW STRESS PERIOD      2     CURRENT TIME STEP:     196     ITERATIONS:      13

 -----------------------------------------------------------------------------------

   CUMULATIVE VOLUMES               L**3   RATES FOR THIS TIME STEP           L**3/T
   ------------------                      ------------------------

                                     IN                                         IN
                                     --                                         --
        PRECIPITATION =        1.6121D+07          PRECIPITATION =                  
           STREAMFLOW =                               STREAMFLOW =                  
     GW BOUNDARY FLOW =                         GW BOUNDARY FLOW =                  


                                    OUT                                        OUT
                                    ---                                        ---
   EVAPOTRANSPIRATION =        6753978.53     EVAPOTRANSPIRATION =         187136.52
           STREAMFLOW =        5063966.10             STREAMFLOW =          60930.17
     GW BOUNDARY FLOW =         127588.87       GW BOUNDARY FLOW =            653.96

   INFLOWS - OUTFLOWS =        4175934.11     INFLOWS - OUTFLOWS =        -248720.65
             --------                                   --------

 TOTAL STORAGE CHANGE =        4181701.02         STORAGE CHANGE =        -248738.32
       --------------                             --------------
         LAND SURFACE =        3249108.93           LAND SURFACE =        -276414.16
            SOIL ZONE =        2439003.12              SOIL ZONE =           -676.44
     UNSATURATED ZONE =        -775430.48       UNSATURATED ZONE =          26583.16
       SATURATED ZONE =        -730980.55         SATURATED ZONE =           1769.12

 OVERALL BUDGET ERROR =          -5766.90           BUDGET ERROR =             17.67


  PERCENT DISCREPANCY =             -0.04    PERCENT DISCREPANCY =              0.01



1
 SUMMARY VOLUMETRIC BUDGET FOR GSFLOW 
 DATE: 04 21 1981              CUMULATIVE TIME STEP:     203
 MODFLOW STRESS PERIOD      2     CURRENT TIME STEP:     203     ITERATIONS:      14

 -----------------------------------------------------------------------------------

   CUMULATIVE VOLUMES               L**3   RATES FOR THIS TIME STEP           L**3/T
   ------------------                      ------------------------

                                     IN                                         IN
                                     --                                         --
        PRECIPITATION =        1.6310D+07          PRECIPITATION =                  
           STREAMFLOW =                               STREAMFLOW =                  
     GW BOUNDARY FLOW =                         GW BOUNDARY FLOW =                  


                                    OUT                                        OUT
                                    ---                                        ---
   EVAPOTRANSPIRATION =        7798378.50     EVAPOTRANSPIRATION =         153837.65
           STREAMFLOW =        5451025.38             STREAMFLOW =          53925.69
     GW BOUNDARY FLOW =         132163.26       GW BOUNDARY FLOW =            653.13

   INFLOWS - OUTFLOWS =        2928675.50     INFLOWS - OUTFLOWS =        -208416.47
             --------                                   --------

 TOTAL STORAGE CHANGE =        2934280.07         STORAGE CHANGE =        -208433.00
       --------------                             --------------
         LAND SURFACE =        1941586.43           LAND SURFACE =        -141315.80
            SOIL ZONE =        2325108.42              SOIL ZONE =         -93516.21
     UNSATURATED ZONE =        -618468.72       UNSATURATED ZONE =          23249.49
       SATURATED ZONE =        -713946.07         SATURATED ZONE =           3149.53

 OVERALL BUDGET ERROR =          -5604.57           BUDGET ERROR =             16.53


  PERCENT DISCREPANCY =             -0.03    PERCENT DISCREPANCY =              0.01



1
 SUMMARY VOLUMETRIC BUDGET FOR GSFLOW 
 DATE: 04 28 1981              CUMULATIVE TIME STEP:     210
 MODFLOW STRESS PERIOD      2     CURRENT TIME STEP:     210     ITERATIONS:      14

 -----------------------------------------------------------------------------------

   CUMULATIVE VOLUMES               L**3   RATES FOR THIS TIME STEP           L**3/T
   ------------------                      ------------------------

                                     IN                                         IN
                                     --                                         --
        PRECIPITATION =        1.6515D+07          PRECIPITATION =                  
           STREAMFLOW =                               STREAMFLOW =                  
     GW BOUNDARY FLOW =                         GW BOUNDARY FLOW =                  


                                    OUT                                        OUT
                                    ---                                        ---
   EVAPOTRANSPIRATION =        9056757.49     EVAPOTRANSPIRATION =         210387.58
           STREAMFLOW =        5711113.47             STREAMFLOW =          30410.37
     GW BOUNDARY FLOW =         136726.71       GW BOUNDARY FLOW =            650.99

   INFLOWS - OUTFLOWS =        1610835.22     INFLOWS - OUTFLOWS =        -241448.94
             --------                                   --------

 TOTAL STORAGE CHANGE =        1616264.15         STORAGE CHANGE =        -241475.18
       --------------                             --------------
         LAND SURFACE =        1047886.51           LAND SURFACE =        -108965.88
            SOIL ZONE =        1831601.30              SOIL ZONE =        -137880.78
     UNSATURATED ZONE =        -563019.48       UNSATURATED ZONE =           3778.56
       SATURATED ZONE =        -700204.19         SATURATED ZONE =           1592.93

 OVERALL BUDGET ERROR =          -5428.93           BUDGET ERROR =             26.24


  PERCENT DISCREPANCY =             -0.03    PERCENT DISCREPANCY =              0.01



1
 SUMMARY VOLUMETRIC BUDGET FOR GSFLOW 
 DATE: 05 05 1981              CUMULATIVE TIME STEP:     217
 MODFLOW STRESS PERIOD      2     CURRENT TIME STEP:     217     ITERATIONS:      14

 -----------------------------------------------------------------------------------

   CUMULATIVE VOLUMES               L**3   RATES FOR THIS TIME STEP           L**3/T
   ------------------                      ------------------------

                                     IN                                         IN
                                     --                                         --
        PRECIPITATION =        1.6515D+07          PRECIPITATION =                  
           STREAMFLOW =                               STREAMFLOW =                  
     GW BOUNDARY FLOW =                         GW BOUNDARY FLOW =                  


                                    OUT                                        OUT
                                    ---                                        ---
   EVAPOTRANSPIRATION =        9913890.21     EVAPOTRANSPIRATION =          47002.82
           STREAMFLOW =        5833938.94             STREAMFLOW =          11706.35
     GW BOUNDARY FLOW =         141275.53       GW BOUNDARY FLOW =            649.00

   INFLOWS - OUTFLOWS =         626328.20     INFLOWS - OUTFLOWS =         -59358.17
             --------                                   --------

 TOTAL STORAGE CHANGE =         631611.16         STORAGE CHANGE =         -59377.90
       --------------                             --------------
         LAND SURFACE =         583908.85           LAND SURFACE =         -19597.75
            SOIL ZONE =        1387125.35              SOIL ZONE =         -23365.11
     UNSATURATED ZONE =        -631216.13       UNSATURATED ZONE =         -14267.01
       SATURATED ZONE =        -708206.92         SATURATED ZONE =          -2148.03

 OVERALL BUDGET ERROR =          -5282.96           BUDGET ERROR =             19.73


  PERCENT DISCREPANCY =             -0.03    PERCENT DISCREPANCY =              0.03



1
 SUMMARY VOLUMETRIC BUDGET FOR GSFLOW 
 DATE: 05 12 1981              CUMULATIVE TIME STEP:     224
 MODFLOW STRESS PERIOD      2     CURRENT TIME STEP:     224     ITERATIONS:      12

 -----------------------------------------------------------------------------------

   CUMULATIVE VOLUMES               L**3   RATES FOR THIS TIME STEP           L**3/T
   ------------------                      ------------------------

                                     IN                                         IN
                                     --                                         --
        PRECIPITATION =        1.6515D+07          PRECIPITATION =                  
           STREAMFLOW =                               STREAMFLOW =                  
     GW BOUNDARY FLOW =                         GW BOUNDARY FLOW =                  


                                    OUT                                        OUT
                                    ---                                        ---
   EVAPOTRANSPIRATION =        1.0446D+07     EVAPOTRANSPIRATION =         101726.47
           STREAMFLOW =        5914960.21             STREAMFLOW =          12820.50
     GW BOUNDARY FLOW =         145815.53       GW BOUNDARY FLOW =            648.47

   INFLOWS - OUTFLOWS =           8987.03     INFLOWS - OUTFLOWS =        -115195.45
             --------                                   --------

 TOTAL STORAGE CHANGE =          14159.65         STORAGE CHANGE =        -115208.24
       --------------                             --------------
         LAND SURFACE =         364139.12           LAND SURFACE =         -39545.55
            SOIL ZONE =        1105518.66              SOIL ZONE =         -60901.92
     UNSATURATED ZONE =        -724446.28       UNSATURATED ZONE =         -10547.21
       SATURATED ZONE =        -731051.85         SATURATED ZONE =          -4213.56

 OVERALL BUDGET ERROR =          -5172.62           BUDGET ERROR =             12.78


  PERCENT DISCREPANCY =             -0.03    PERCENT DISCREPANCY =              0.01



1
 SUMMARY VOLUMETRIC BUDGET FOR GSFLOW 
 DATE: 05 19 1981              CUMULATIVE TIME STEP:     231
 MODFLOW STRESS PERIOD      2     CURRENT TIME STEP:     231     ITERATIONS:      19

 -----------------------------------------------------------------------------------

   CUMULATIVE VOLUMES               L**3   RATES FOR THIS TIME STEP           L**3/T
   ------------------                      ------------------------

                                     IN                                         IN
                                     --                                         --
        PRECIPITATION =        1.7837D+07          PRECIPITATION =         169045.43
           STREAMFLOW =                               STREAMFLOW =                  
     GW BOUNDARY FLOW =                         GW BOUNDARY FLOW =                  


                                    OUT                                        OUT
                                    ---                                        ---
   EVAPOTRANSPIRATION =        1.0792D+07     EVAPOTRANSPIRATION =          31098.89
           STREAMFLOW =        6069485.00             STREAMFLOW =          31801.50
     GW BOUNDARY FLOW =         150357.09       GW BOUNDARY FLOW =            649.98

   INFLOWS - OUTFLOWS =         825621.89     INFLOWS - OUTFLOWS =         105495.06
             --------                                   --------

 TOTAL STORAGE CHANGE =         830718.19         STORAGE CHANGE =         105480.58
       --------------                             --------------
         LAND SURFACE =         315733.71           LAND SURFACE =          16905.78
            SOIL ZONE =        2042173.44              SOIL ZONE =          86063.04
     UNSATURATED ZONE =        -762614.90       UNSATURATED ZONE =           6653.75
       SATURATED ZONE =        -764574.06         SATURATED ZONE =          -4141.99

 OVERALL BUDGET ERROR =          -5096.30           BUDGET ERROR =             14.47


  PERCENT DISCREPANCY =             -0.03    PERCENT DISCREPANCY =              0.01



1
 SUMMARY VOLUMETRIC BUDGET FOR GSFLOW 
 DATE: 05 26 1981              CUMULATIVE TIME STEP:     238
 MODFLOW STRESS PERIOD      2     CURRENT TIME STEP:     238     ITERATIONS:      14

 -----------------------------------------------------------------------------------

   CUMULATIVE VOLUMES               L**3   RATES FOR THIS TIME STEP           L**3/T
   ------------------                      ------------------------

                                     IN                                         IN
                                     --                                         --
        PRECIPITATION =        1.8252D+07          PRECIPITATION =         284303.67
           STREAMFLOW =                               STREAMFLOW =                  
     GW BOUNDARY FLOW =                         GW BOUNDARY FLOW =                  


                                    OUT                                        OUT
                                    ---                                        ---
   EVAPOTRANSPIRATION =        1.1581D+07     EVAPOTRANSPIRATION =         126247.52
           STREAMFLOW =        6207353.46             STREAMFLOW =          24131.95
     GW BOUNDARY FLOW =         154901.34       GW BOUNDARY FLOW =            648.96

   INFLOWS - OUTFLOWS =         308596.80     INFLOWS - OUTFLOWS =         133275.24
             --------                                   --------

 TOTAL STORAGE CHANGE =         313621.71         STORAGE CHANGE =         133266.18
       --------------                             --------------
         LAND SURFACE =         197572.68           LAND SURFACE =         -13397.86
            SOIL ZONE =        1711105.84              SOIL ZONE =         158547.10
     UNSATURATED ZONE =        -790067.22       UNSATURATED ZONE =          -6420.03
       SATURATED ZONE =        -804989.59         SATURATED ZONE =          -5463.03

 OVERALL BUDGET ERROR =          -5024.91           BUDGET ERROR =              9.06


  PERCENT DISCREPANCY =             -0.03    PERCENT DISCREPANCY =              0.00



1
 SUMMARY VOLUMETRIC BUDGET FOR GSFLOW 
 DATE: 06 02 1981              CUMULATIVE TIME STEP:     245
 MODFLOW STRESS PERIOD      2     CURRENT TIME STEP:     245     ITERATIONS:      17

 -----------------------------------------------------------------------------------

   CUMULATIVE VOLUMES               L**3   RATES FOR THIS TIME STEP           L**3/T
   ------------------                      ------------------------

                                     IN                                         IN
                                     --                                         --
        PRECIPITATION =        1.8318D+07          PRECIPITATION =          50869.96
           STREAMFLOW =                               STREAMFLOW =                  
     GW BOUNDARY FLOW =                         GW BOUNDARY FLOW =                  


                                    OUT                                        OUT
                                    ---                                        ---
   EVAPOTRANSPIRATION =        1.2409D+07     EVAPOTRANSPIRATION =          66645.20
           STREAMFLOW =        6293538.12             STREAMFLOW =           9120.91
     GW BOUNDARY FLOW =         159439.13       GW BOUNDARY FLOW =            647.71

   INFLOWS - OUTFLOWS =        -544178.83     INFLOWS - OUTFLOWS =         -25543.86
             --------                                   --------

 TOTAL STORAGE CHANGE =        -539191.09         STORAGE CHANGE =         -25550.91
       --------------                             --------------
         LAND SURFACE =         119474.98           LAND SURFACE =          25659.25
            SOIL ZONE =        1065573.09              SOIL ZONE =         -31104.88
     UNSATURATED ZONE =        -867963.76       UNSATURATED ZONE =         -12248.54
       SATURATED ZONE =        -856275.39         SATURATED ZONE =          -7856.73

 OVERALL BUDGET ERROR =          -4987.74           BUDGET ERROR =              7.05


  PERCENT DISCREPANCY =             -0.03    PERCENT DISCREPANCY =              0.01



1
 SUMMARY VOLUMETRIC BUDGET FOR GSFLOW 
 DATE: 06 09 1981              CUMULATIVE TIME STEP:     252
 MODFLOW STRESS PERIOD      2     CURRENT TIME STEP:     252     ITERATIONS:      15

 -----------------------------------------------------------------------------------

   CUMULATIVE VOLUMES               L**3   RATES FOR THIS TIME STEP           L**3/T
   ------------------                      ------------------------

                                     IN                                         IN
                                     --                                         --
        PRECIPITATION =        1.8318D+07          PRECIPITATION =                  
           STREAMFLOW =                               STREAMFLOW =                  
     GW BOUNDARY FLOW =                         GW BOUNDARY FLOW =                  


                                    OUT                                        OUT
                                    ---                                        ---
   EVAPOTRANSPIRATION =        1.2966D+07     EVAPOTRANSPIRATION =          55376.94
           STREAMFLOW =        6348403.88             STREAMFLOW =           7216.40
     GW BOUNDARY FLOW =         163970.55       GW BOUNDARY FLOW =            647.13

   INFLOWS - OUTFLOWS =       -1159935.78     INFLOWS - OUTFLOWS =         -63240.47
             --------                                   --------

 TOTAL STORAGE CHANGE =       -1155007.14         STORAGE CHANGE =         -63251.38
       --------------                             --------------
         LAND SURFACE =          39669.53           LAND SURFACE =          -4382.74
            SOIL ZONE =         671467.63              SOIL ZONE =         -38354.22
     UNSATURATED ZONE =        -951170.67       UNSATURATED ZONE =         -11942.90
       SATURATED ZONE =        -914973.62         SATURATED ZONE =          -8571.52

 OVERALL BUDGET ERROR =          -4928.64           BUDGET ERROR =             10.91


  PERCENT DISCREPANCY =             -0.03    PERCENT DISCREPANCY =              0.02



1
 SUMMARY VOLUMETRIC BUDGET FOR GSFLOW 
 DATE: 06 16 1981              CUMULATIVE TIME STEP:     259
 MODFLOW STRESS PERIOD      2     CURRENT TIME STEP:     259     ITERATIONS:      14

 -----------------------------------------------------------------------------------

   CUMULATIVE VOLUMES               L**3   RATES FOR THIS TIME STEP           L**3/T
   ------------------                      ------------------------

                                     IN                                         IN
                                     --                                         --
        PRECIPITATION =        1.8318D+07          PRECIPITATION =                  
           STREAMFLOW =                               STREAMFLOW =                  
     GW BOUNDARY FLOW =                         GW BOUNDARY FLOW =                  


                                    OUT                                        OUT
                                    ---                                        ---
   EVAPOTRANSPIRATION =        1.3177D+07     EVAPOTRANSPIRATION =          49129.58
           STREAMFLOW =        6396101.71             STREAMFLOW =           6666.92
     GW BOUNDARY FLOW =         168499.31       GW BOUNDARY FLOW =            646.87

   INFLOWS - OUTFLOWS =       -1423184.16     INFLOWS - OUTFLOWS =         -56443.37
             --------                                   --------

 TOTAL STORAGE CHANGE =       -1418292.72         STORAGE CHANGE =         -56449.56
       --------------                             --------------
         LAND SURFACE =          25589.68           LAND SURFACE =          -3042.77
            SOIL ZONE =         571923.68              SOIL ZONE =         -31737.50
     UNSATURATED ZONE =       -1038907.23       UNSATURATED ZONE =         -12731.42
       SATURATED ZONE =        -976898.86         SATURATED ZONE =          -8937.88

 OVERALL BUDGET ERROR =          -4891.43           BUDGET ERROR =              6.19


  PERCENT DISCREPANCY =             -0.02    PERCENT DISCREPANCY =              0.01



1
 SUMMARY VOLUMETRIC BUDGET FOR GSFLOW 
 DATE: 06 23 1981              CUMULATIVE TIME STEP:     266
 MODFLOW STRESS PERIOD      2     CURRENT TIME STEP:     266     ITERATIONS:      18

 -----------------------------------------------------------------------------------

   CUMULATIVE VOLUMES               L**3   RATES FOR THIS TIME STEP           L**3/T
   ------------------                      ------------------------

                                     IN                                         IN
                                     --                                         --
        PRECIPITATION =        1.8318D+07          PRECIPITATION =                  
           STREAMFLOW =                               STREAMFLOW =                  
     GW BOUNDARY FLOW =                         GW BOUNDARY FLOW =                  


                                    OUT                                        OUT
                                    ---                                        ---
   EVAPOTRANSPIRATION =        1.3519D+07     EVAPOTRANSPIRATION =          40291.24
           STREAMFLOW =        6440459.18             STREAMFLOW =           6087.09
     GW BOUNDARY FLOW =         173026.48       GW BOUNDARY FLOW =            646.64

   INFLOWS - OUTFLOWS =       -1813817.10     INFLOWS - OUTFLOWS =         -47024.96
             --------                                   --------

 TOTAL STORAGE CHANGE =       -1808992.89         STORAGE CHANGE =         -47032.63
       --------------                             --------------
         LAND SURFACE =           6959.28           LAND SURFACE =          -1578.51
            SOIL ZONE =         352833.72              SOIL ZONE =         -23674.30
     UNSATURATED ZONE =       -1126804.14       UNSATURATED ZONE =         -12276.76
       SATURATED ZONE =       -1041981.76         SATURATED ZONE =          -9503.07

 OVERALL BUDGET ERROR =          -4824.21           BUDGET ERROR =              7.67


  PERCENT DISCREPANCY =             -0.02    PERCENT DISCREPANCY =              0.02



1
 SUMMARY VOLUMETRIC BUDGET FOR GSFLOW 
 DATE: 06 30 1981              CUMULATIVE TIME STEP:     273
 MODFLOW STRESS PERIOD      2     CURRENT TIME STEP:     273     ITERATIONS:      14

 -----------------------------------------------------------------------------------

   CUMULATIVE VOLUMES               L**3   RATES FOR THIS TIME STEP           L**3/T
   ------------------                      ------------------------

                                     IN                                         IN
[...]
                                    ---                                        ---
   EVAPOTRANSPIRATION =        2.8382D+08     EVAPOTRANSPIRATION =          49225.70
           STREAMFLOW =        1.8483D+08             STREAMFLOW =           7347.58
     GW BOUNDARY FLOW =        3736514.43       GW BOUNDARY FLOW =            651.06

   INFLOWS - OUTFLOWS =       -7325003.43     INFLOWS - OUTFLOWS =         -57224.34
             --------                                   --------

 TOTAL STORAGE CHANGE =       -7296625.42         STORAGE CHANGE =         -57243.75
       --------------                             --------------
         LAND SURFACE =         214963.45           LAND SURFACE =         -10645.32
            SOIL ZONE =         329881.31              SOIL ZONE =         -25163.67
     UNSATURATED ZONE =        5399511.71       UNSATURATED ZONE =         -28154.78
       SATURATED ZONE =       -1.3241D+07         SATURATED ZONE =           6720.02

 OVERALL BUDGET ERROR =         -28378.01           BUDGET ERROR =             19.41


  PERCENT DISCREPANCY =             -0.01    PERCENT DISCREPANCY =              0.03



1
 SUMMARY VOLUMETRIC BUDGET FOR GSFLOW 
 DATE: 07 30 1996              CUMULATIVE TIME STEP:    5782
 MODFLOW STRESS PERIOD      2     CURRENT TIME STEP:    5782     ITERATIONS:      15

 -----------------------------------------------------------------------------------

   CUMULATIVE VOLUMES               L**3   RATES FOR THIS TIME STEP           L**3/T
   ------------------                      ------------------------

                                     IN                                         IN
                                     --                                         --
        PRECIPITATION =        4.6511D+08          PRECIPITATION =                  
           STREAMFLOW =                               STREAMFLOW =                  
     GW BOUNDARY FLOW =                         GW BOUNDARY FLOW =                  


                                    OUT                                        OUT
                                    ---                                        ---
   EVAPOTRANSPIRATION =        2.8413D+08     EVAPOTRANSPIRATION =          32620.65
           STREAMFLOW =        1.8488D+08             STREAMFLOW =           7047.04
     GW BOUNDARY FLOW =        3741070.08       GW BOUNDARY FLOW =            650.64

   INFLOWS - OUTFLOWS =       -7638631.90     INFLOWS - OUTFLOWS =         -40318.33
             --------                                   --------

 TOTAL STORAGE CHANGE =       -7610447.02         STORAGE CHANGE =         -40341.82
       --------------                             --------------
         LAND SURFACE =         152309.38           LAND SURFACE =          -7555.65
            SOIL ZONE =         229721.92              SOIL ZONE =         -11318.77
     UNSATURATED ZONE =        5201408.18       UNSATURATED ZONE =         -28009.38
       SATURATED ZONE =       -1.3194D+07         SATURATED ZONE =           6541.97

 OVERALL BUDGET ERROR =         -28184.88           BUDGET ERROR =             23.50


  PERCENT DISCREPANCY =             -0.01    PERCENT DISCREPANCY =              0.06



1
 SUMMARY VOLUMETRIC BUDGET FOR GSFLOW 
 DATE: 08 06 1996              CUMULATIVE TIME STEP:    5789
 MODFLOW STRESS PERIOD      2     CURRENT TIME STEP:    5789     ITERATIONS:      14

 -----------------------------------------------------------------------------------

   CUMULATIVE VOLUMES               L**3   RATES FOR THIS TIME STEP           L**3/T
   ------------------                      ------------------------

                                     IN                                         IN
                                     --                                         --
        PRECIPITATION =        4.6511D+08          PRECIPITATION =                  
           STREAMFLOW =                               STREAMFLOW =                  
     GW BOUNDARY FLOW =                         GW BOUNDARY FLOW =                  


                                    OUT                                        OUT
                                    ---                                        ---
   EVAPOTRANSPIRATION =        2.8431D+08     EVAPOTRANSPIRATION =          26112.76
           STREAMFLOW =        1.8493D+08             STREAMFLOW =           6766.21
     GW BOUNDARY FLOW =        3745624.24       GW BOUNDARY FLOW =            650.54

   INFLOWS - OUTFLOWS =       -7875673.09     INFLOWS - OUTFLOWS =         -33529.50
             --------                                   --------

 TOTAL STORAGE CHANGE =       -7847667.61         STORAGE CHANGE =         -33559.75
       --------------                             --------------
         LAND SURFACE =         111776.46           LAND SURFACE =          -5017.65
            SOIL ZONE =         181997.87              SOIL ZONE =          -7395.48
     UNSATURATED ZONE =        5012416.92       UNSATURATED ZONE =         -26281.64
       SATURATED ZONE =       -1.3154D+07         SATURATED ZONE =           5135.01

 OVERALL BUDGET ERROR =         -28005.49           BUDGET ERROR =             30.25


  PERCENT DISCREPANCY =             -0.01    PERCENT DISCREPANCY =              0.09



1
 SUMMARY VOLUMETRIC BUDGET FOR GSFLOW 
 DATE: 08 13 1996              CUMULATIVE TIME STEP:    5796
 MODFLOW STRESS PERIOD      2     CURRENT TIME STEP:    5796     ITERATIONS:      15

 -----------------------------------------------------------------------------------

   CUMULATIVE VOLUMES               L**3   RATES FOR THIS TIME STEP           L**3/T
   ------------------                      ------------------------

                                     IN                                         IN
                                     --                                         --
        PRECIPITATION =        4.6531D+08          PRECIPITATION =          54454.08
           STREAMFLOW =                               STREAMFLOW =                  
     GW BOUNDARY FLOW =                         GW BOUNDARY FLOW =                  


                                    OUT                                        OUT
                                    ---                                        ---
   EVAPOTRANSPIRATION =        2.8452D+08     EVAPOTRANSPIRATION =          36083.03
           STREAMFLOW =        1.8498D+08             STREAMFLOW =           7970.93
     GW BOUNDARY FLOW =        3750177.52       GW BOUNDARY FLOW =            650.48

   INFLOWS - OUTFLOWS =       -7940530.45     INFLOWS - OUTFLOWS =           9749.65
             --------                                   --------

 TOTAL STORAGE CHANGE =       -7912674.55         STORAGE CHANGE =           9727.83
       --------------                             --------------
         LAND SURFACE =         105220.94           LAND SURFACE =          -5194.35
            SOIL ZONE =         269956.14              SOIL ZONE =          35646.73
     UNSATURATED ZONE =        4832363.09       UNSATURATED ZONE =         -25079.90
       SATURATED ZONE =       -1.3120D+07         SATURATED ZONE =           4355.35

 OVERALL BUDGET ERROR =         -27855.90           BUDGET ERROR =             21.82


  PERCENT DISCREPANCY =             -0.01    PERCENT DISCREPANCY =              0.04



1
 SUMMARY VOLUMETRIC BUDGET FOR GSFLOW 
 DATE: 08 20 1996              CUMULATIVE TIME STEP:    5803
 MODFLOW STRESS PERIOD      2     CURRENT TIME STEP:    5803     ITERATIONS:      14

 -----------------------------------------------------------------------------------

   CUMULATIVE VOLUMES               L**3   RATES FOR THIS TIME STEP           L**3/T
   ------------------                      ------------------------

                                     IN                                         IN
                                     --                                         --
        PRECIPITATION =        4.6531D+08          PRECIPITATION =                  
           STREAMFLOW =                               STREAMFLOW =                  
     GW BOUNDARY FLOW =                         GW BOUNDARY FLOW =                  


                                    OUT                                        OUT
                                    ---                                        ---
   EVAPOTRANSPIRATION =        2.8474D+08     EVAPOTRANSPIRATION =          18242.47
           STREAMFLOW =        1.8503D+08             STREAMFLOW =           6519.70
     GW BOUNDARY FLOW =        3754729.21       GW BOUNDARY FLOW =            650.06

   INFLOWS - OUTFLOWS =       -8210643.36     INFLOWS - OUTFLOWS =         -25412.24
             --------                                   --------

 TOTAL STORAGE CHANGE =       -8182955.48         STORAGE CHANGE =         -25434.42
       --------------                             --------------
         LAND SURFACE =          44442.31           LAND SURFACE =          -2851.34
            SOIL ZONE =         205246.28              SOIL ZONE =          -2015.00
     UNSATURATED ZONE =        4661473.56       UNSATURATED ZONE =         -23898.28
       SATURATED ZONE =       -1.3094D+07         SATURATED ZONE =           3330.21

 OVERALL BUDGET ERROR =         -27687.88           BUDGET ERROR =             22.18


  PERCENT DISCREPANCY =             -0.01    PERCENT DISCREPANCY =              0.09



1
 SUMMARY VOLUMETRIC BUDGET FOR GSFLOW 
 DATE: 08 27 1996              CUMULATIVE TIME STEP:    5810
 MODFLOW STRESS PERIOD      2     CURRENT TIME STEP:    5810     ITERATIONS:      13

 -----------------------------------------------------------------------------------

   CUMULATIVE VOLUMES               L**3   RATES FOR THIS TIME STEP           L**3/T
   ------------------                      ------------------------

                                     IN                                         IN
                                     --                                         --
        PRECIPITATION =        4.6531D+08          PRECIPITATION =                  
           STREAMFLOW =                               STREAMFLOW =                  
     GW BOUNDARY FLOW =                         GW BOUNDARY FLOW =                  


                                    OUT                                        OUT
                                    ---                                        ---
   EVAPOTRANSPIRATION =        2.8490D+08     EVAPOTRANSPIRATION =          16928.77
           STREAMFLOW =        1.8507D+08             STREAMFLOW =           6354.76
     GW BOUNDARY FLOW =        3759278.10       GW BOUNDARY FLOW =            649.68

   INFLOWS - OUTFLOWS =       -8421558.71     INFLOWS - OUTFLOWS =         -23933.21
             --------                                   --------

 TOTAL STORAGE CHANGE =       -8394076.92         STORAGE CHANGE =         -23961.24
       --------------                             --------------
         LAND SURFACE =          21435.23           LAND SURFACE =          -2621.72
            SOIL ZONE =         160108.57              SOIL ZONE =          -1024.73
     UNSATURATED ZONE =        4499994.46       UNSATURATED ZONE =         -22552.73
       SATURATED ZONE =       -1.3076D+07         SATURATED ZONE =           2237.94

 OVERALL BUDGET ERROR =         -27481.79           BUDGET ERROR =             28.02


  PERCENT DISCREPANCY =             -0.01    PERCENT DISCREPANCY =              0.12



1
 SUMMARY VOLUMETRIC BUDGET FOR GSFLOW 
 DATE: 09 03 1996              CUMULATIVE TIME STEP:    5817
 MODFLOW STRESS PERIOD      2     CURRENT TIME STEP:    5817     ITERATIONS:      13

 -----------------------------------------------------------------------------------

   CUMULATIVE VOLUMES               L**3   RATES FOR THIS TIME STEP           L**3/T
   ------------------                      ------------------------

                                     IN                                         IN
                                     --                                         --
        PRECIPITATION =        4.6531D+08          PRECIPITATION =                  
           STREAMFLOW =                               STREAMFLOW =                  
     GW BOUNDARY FLOW =                         GW BOUNDARY FLOW =                  


                                    OUT                                        OUT
                                    ---                                        ---
   EVAPOTRANSPIRATION =        2.8502D+08     EVAPOTRANSPIRATION =          15451.95
           STREAMFLOW =        1.8512D+08             STREAMFLOW =           6240.87
     GW BOUNDARY FLOW =        3763824.19       GW BOUNDARY FLOW =            649.26

   INFLOWS - OUTFLOWS =       -8588951.51     INFLOWS - OUTFLOWS =         -22342.08
             --------                                   --------

 TOTAL STORAGE CHANGE =       -8561693.46         STORAGE CHANGE =         -22377.97
       --------------                             --------------
         LAND SURFACE =           7240.32           LAND SURFACE =          -1278.90
            SOIL ZONE =         147945.77              SOIL ZONE =          -1016.86
     UNSATURATED ZONE =        4346241.77       UNSATURATED ZONE =         -21747.19
       SATURATED ZONE =       -1.3063D+07         SATURATED ZONE =           1664.98

 OVERALL BUDGET ERROR =         -27258.05           BUDGET ERROR =             35.89


  PERCENT DISCREPANCY =             -0.01    PERCENT DISCREPANCY =              0.16



1
 SUMMARY VOLUMETRIC BUDGET FOR GSFLOW 
 DATE: 09 10 1996              CUMULATIVE TIME STEP:    5824
 MODFLOW STRESS PERIOD      2     CURRENT TIME STEP:    5824     ITERATIONS:      13

 -----------------------------------------------------------------------------------

   CUMULATIVE VOLUMES               L**3   RATES FOR THIS TIME STEP           L**3/T
   ------------------                      ------------------------

                                     IN                                         IN
                                     --                                         --
        PRECIPITATION =        4.6531D+08          PRECIPITATION =                  
           STREAMFLOW =                               STREAMFLOW =                  
     GW BOUNDARY FLOW =                         GW BOUNDARY FLOW =                  


                                    OUT                                        OUT
                                    ---                                        ---
   EVAPOTRANSPIRATION =        2.8511D+08     EVAPOTRANSPIRATION =          13776.89
           STREAMFLOW =        1.8516D+08             STREAMFLOW =           6133.06
     GW BOUNDARY FLOW =        3768367.47       GW BOUNDARY FLOW =            648.87

   INFLOWS - OUTFLOWS =       -8726137.66     INFLOWS - OUTFLOWS =         -20558.81
             --------                                   --------

 TOTAL STORAGE CHANGE =       -8699129.97         STORAGE CHANGE =         -20592.66
       --------------                             --------------
         LAND SURFACE =           2510.71           LAND SURFACE =           -704.62
            SOIL ZONE =         154893.43              SOIL ZONE =            -35.45
     UNSATURATED ZONE =        4196969.78       UNSATURATED ZONE =         -20933.86
       SATURATED ZONE =       -1.3054D+07         SATURATED ZONE =           1081.27

 OVERALL BUDGET ERROR =         -27007.69           BUDGET ERROR =             33.85


  PERCENT DISCREPANCY =             -0.01    PERCENT DISCREPANCY =              0.16



1
 SUMMARY VOLUMETRIC BUDGET FOR GSFLOW 
 DATE: 09 17 1996              CUMULATIVE TIME STEP:    5831
 MODFLOW STRESS PERIOD      2     CURRENT TIME STEP:    5831     ITERATIONS:      12

 -----------------------------------------------------------------------------------

   CUMULATIVE VOLUMES               L**3   RATES FOR THIS TIME STEP           L**3/T
   ------------------                      ------------------------

                                     IN                                         IN
                                     --                                         --
        PRECIPITATION =        4.6637D+08          PRECIPITATION =                  
           STREAMFLOW =                               STREAMFLOW =                  
     GW BOUNDARY FLOW =                         GW BOUNDARY FLOW =                  


                                    OUT                                        OUT
                                    ---                                        ---
   EVAPOTRANSPIRATION =        2.8529D+08     EVAPOTRANSPIRATION =          52774.70
           STREAMFLOW =        1.8523D+08             STREAMFLOW =          10299.79
     GW BOUNDARY FLOW =        3772909.95       GW BOUNDARY FLOW =            649.26

   INFLOWS - OUTFLOWS =       -7918087.34     INFLOWS - OUTFLOWS =         -63723.76
             --------                                   --------

 TOTAL STORAGE CHANGE =       -7891335.74         STORAGE CHANGE =         -63757.11
       --------------                             --------------
         LAND SURFACE =            882.14           LAND SURFACE =         -33826.70
            SOIL ZONE =        1100388.71              SOIL ZONE =         -10295.17
     UNSATURATED ZONE =        4052488.59       UNSATURATED ZONE =         -20284.46
       SATURATED ZONE =       -1.3045D+07         SATURATED ZONE =            649.21

 OVERALL BUDGET ERROR =         -26751.60           BUDGET ERROR =             33.36


  PERCENT DISCREPANCY =             -0.01    PERCENT DISCREPANCY =              0.05



1
 SUMMARY VOLUMETRIC BUDGET FOR GSFLOW 
 DATE: 09 24 1996              CUMULATIVE TIME STEP:    5838
 MODFLOW STRESS PERIOD      2     CURRENT TIME STEP:    5838     ITERATIONS:      12

 -----------------------------------------------------------------------------------

   CUMULATIVE VOLUMES               L**3   RATES FOR THIS TIME STEP           L**3/T
   ------------------                      ------------------------

                                     IN                                         IN
                                     --                                         --
        PRECIPITATION =        4.6637D+08          PRECIPITATION =                  
           STREAMFLOW =                               STREAMFLOW =                  
     GW BOUNDARY FLOW =                         GW BOUNDARY FLOW =                  


                                    OUT                                        OUT
                                    ---                                        ---
   EVAPOTRANSPIRATION =        2.8575D+08     EVAPOTRANSPIRATION =          54621.78
           STREAMFLOW =        1.8528D+08             STREAMFLOW =           6710.17
     GW BOUNDARY FLOW =        3777450.85       GW BOUNDARY FLOW =            648.36

   INFLOWS - OUTFLOWS =       -8438767.43     INFLOWS - OUTFLOWS =         -61980.32
             --------                                   --------

 TOTAL STORAGE CHANGE =       -8412263.58         STORAGE CHANGE =         -62015.34
       --------------                             --------------
         LAND SURFACE =                             LAND SURFACE =                  
            SOIL ZONE =         717054.40              SOIL ZONE =         -42567.06
     UNSATURATED ZONE =        3914709.69       UNSATURATED ZONE =         -19308.81
       SATURATED ZONE =       -1.3044D+07         SATURATED ZONE =           -139.48

 OVERALL BUDGET ERROR =         -26503.85           BUDGET ERROR =             35.03


  PERCENT DISCREPANCY =             -0.01    PERCENT DISCREPANCY =              0.06



