1
 SUMMARY VOLUMETRIC BUDGET FOR GSFLOW 
 DATE: 10 07 1980              CUMULATIVE TIME STEP:       7
 MODFLOW STRESS PERIOD      2     CURRENT TIME STEP:       7     ITERATIONS:       6

 -----------------------------------------------------------------------------------

   CUMULATIVE VOLUMES               L**3   RATES FOR THIS TIME STEP           L**3/T
   ------------------                      ------------------------

                                     IN                                         IN
                                     --                                         --
        PRECIPITATION =                            PRECIPITATION =                  
           STREAMFLOW =                               STREAMFLOW =                  
     GW BOUNDARY FLOW =                         GW BOUNDARY FLOW =                  


                                    OUT                                        OUT
                                    ---                                        ---
   EVAPOTRANSPIRATION =          63605.84     EVAPOTRANSPIRATION =           9289.49
           STREAMFLOW =          42957.50             STREAMFLOW =           6065.76
     GW BOUNDARY FLOW =           4541.44       GW BOUNDARY FLOW =            648.70

   INFLOWS - OUTFLOWS =        -111104.78     INFLOWS - OUTFLOWS =         -16003.95
             --------                                   --------

 TOTAL STORAGE CHANGE =        -110709.17         STORAGE CHANGE =         -15943.37
       --------------                             --------------
         LAND SURFACE =                             LAND SURFACE =                  
            SOIL ZONE =          46910.14              SOIL ZONE =           6406.82
     UNSATURATED ZONE =        -144779.04       UNSATURATED ZONE =         -20361.32
       SATURATED ZONE =         -12840.27         SATURATED ZONE =          -1988.86

 OVERALL BUDGET ERROR =           -395.61           BUDGET ERROR =            -60.59


  PERCENT DISCREPANCY =             -0.36    PERCENT DISCREPANCY =             -0.38



1
 SUMMARY VOLUMETRIC BUDGET FOR GSFLOW 
 DATE: 10 14 1980              CUMULATIVE TIME STEP:      14
 MODFLOW STRESS PERIOD      2     CURRENT TIME STEP:      14     ITERATIONS:       6

 -----------------------------------------------------------------------------------

   CUMULATIVE VOLUMES               L**3   RATES FOR THIS TIME STEP           L**3/T
   ------------------                      ------------------------

                                     IN                                         IN
                                     --                                         --
        PRECIPITATION =         650779.83          PRECIPITATION =         164754.40
           STREAMFLOW =                               STREAMFLOW =                  
     GW BOUNDARY FLOW =                         GW BOUNDARY FLOW =                  


                                    OUT                                        OUT
                                    ---                                        ---
   EVAPOTRANSPIRATION =         159215.12     EVAPOTRANSPIRATION =          10673.05
           STREAMFLOW =          94506.77             STREAMFLOW =           7738.45
     GW BOUNDARY FLOW =           9082.96       GW BOUNDARY FLOW =            648.94

   INFLOWS - OUTFLOWS =         387974.99     INFLOWS - OUTFLOWS =         145693.95
             --------                                   --------

 TOTAL STORAGE CHANGE =         388814.05         STORAGE CHANGE =         145755.93
       --------------                             --------------
         LAND SURFACE =         183750.31           LAND SURFACE =         130549.56
            SOIL ZONE =         517126.88              SOIL ZONE =          37234.98
     UNSATURATED ZONE =        -284497.11       UNSATURATED ZONE =         -19625.12
       SATURATED ZONE =         -27566.03         SATURATED ZONE =          -2403.48

 OVERALL BUDGET ERROR =           -839.06           BUDGET ERROR =            -61.98


  PERCENT DISCREPANCY =             -0.13    PERCENT DISCREPANCY =             -0.04



1
 SUMMARY VOLUMETRIC BUDGET FOR GSFLOW 
 DATE: 10 21 1980              CUMULATIVE TIME STEP:      21
 MODFLOW STRESS PERIOD      2     CURRENT TIME STEP:      21     ITERATIONS:       6

 -----------------------------------------------------------------------------------

   CUMULATIVE VOLUMES               L**3   RATES FOR THIS TIME STEP           L**3/T
   ------------------                      ------------------------

                                     IN                                         IN
                                     --                                         --
        PRECIPITATION =         733157.03          PRECIPITATION =                  
           STREAMFLOW =                               STREAMFLOW =                  
     GW BOUNDARY FLOW =                         GW BOUNDARY FLOW =                  


                                    OUT                                        OUT
                                    ---                                        ---
   EVAPOTRANSPIRATION =         377126.86     EVAPOTRANSPIRATION =          31328.64
           STREAMFLOW =         146202.75             STREAMFLOW =           6989.13
     GW BOUNDARY FLOW =          13624.75       GW BOUNDARY FLOW =            648.75

   INFLOWS - OUTFLOWS =         196202.67     INFLOWS - OUTFLOWS =         -38966.52
             --------                                   --------

 TOTAL STORAGE CHANGE =         197489.33         STORAGE CHANGE =         -38897.87
       --------------                             --------------
         LAND SURFACE =                             LAND SURFACE =                  
            SOIL ZONE =         662688.83              SOIL ZONE =         -17042.78
     UNSATURATED ZONE =        -418664.31       UNSATURATED ZONE =         -18827.03
       SATURATED ZONE =         -46535.19         SATURATED ZONE =          -3028.05

 OVERALL BUDGET ERROR =          -1286.66           BUDGET ERROR =            -68.65


  PERCENT DISCREPANCY =             -0.18    PERCENT DISCREPANCY =             -0.18



1
 SUMMARY VOLUMETRIC BUDGET FOR GSFLOW 
 DATE: 10 28 1980              CUMULATIVE TIME STEP:      28
 MODFLOW STRESS PERIOD      2     CURRENT TIME STEP:      28     ITERATIONS:       6

 -----------------------------------------------------------------------------------

   CUMULATIVE VOLUMES               L**3   RATES FOR THIS TIME STEP           L**3/T
   ------------------                      ------------------------

                                     IN                                         IN
                                     --                                         --
        PRECIPITATION =        1070903.53          PRECIPITATION =                  
           STREAMFLOW =                               STREAMFLOW =                  
     GW BOUNDARY FLOW =                         GW BOUNDARY FLOW =                  


                                    OUT                                        OUT
                                    ---                                        ---
   EVAPOTRANSPIRATION =         553401.18     EVAPOTRANSPIRATION =          24800.27
           STREAMFLOW =         201241.73             STREAMFLOW =           8022.47
     GW BOUNDARY FLOW =          18166.08       GW BOUNDARY FLOW =            648.81

   INFLOWS - OUTFLOWS =         298094.54     INFLOWS - OUTFLOWS =         -33471.55
             --------                                   --------

 TOTAL STORAGE CHANGE =         299887.58         STORAGE CHANGE =         -33398.16
       --------------                             --------------
         LAND SURFACE =          20571.53           LAND SURFACE =         -29890.85
            SOIL ZONE =         895715.10              SOIL ZONE =          17979.43
     UNSATURATED ZONE =        -547250.73       UNSATURATED ZONE =         -17999.39
       SATURATED ZONE =         -69148.32         SATURATED ZONE =          -3487.35

 OVERALL BUDGET ERROR =          -1793.05           BUDGET ERROR =            -73.39


  PERCENT DISCREPANCY =             -0.17    PERCENT DISCREPANCY =             -0.22



1
 SUMMARY VOLUMETRIC BUDGET FOR GSFLOW 
 DATE: 11 04 1980              CUMULATIVE TIME STEP:      35
 MODFLOW STRESS PERIOD      2     CURRENT TIME STEP:      35     ITERATIONS:       8

 -----------------------------------------------------------------------------------

   CUMULATIVE VOLUMES               L**3   RATES FOR THIS TIME STEP           L**3/T
   ------------------                      ------------------------

                                     IN                                         IN
                                     --                                         --
        PRECIPITATION =        1070903.53          PRECIPITATION =                  
           STREAMFLOW =                               STREAMFLOW =                  
     GW BOUNDARY FLOW =                         GW BOUNDARY FLOW =                  


                                    OUT                                        OUT
                                    ---                                        ---
   EVAPOTRANSPIRATION =         842917.64     EVAPOTRANSPIRATION =          39659.54
           STREAMFLOW =         254113.85             STREAMFLOW =           7091.82
     GW BOUNDARY FLOW =          22707.14       GW BOUNDARY FLOW =            648.65

   INFLOWS - OUTFLOWS =         -48835.10     INFLOWS - OUTFLOWS =         -47400.01
             --------                                   --------

 TOTAL STORAGE CHANGE =         -46625.26         STORAGE CHANGE =         -47348.28
       --------------                             --------------
         LAND SURFACE =                             LAND SURFACE =                  
            SOIL ZONE =         720405.60              SOIL ZONE =         -25818.07
     UNSATURATED ZONE =        -670662.22       UNSATURATED ZONE =         -17362.99
       SATURATED ZONE =         -96368.64         SATURATED ZONE =          -4167.21

 OVERALL BUDGET ERROR =          -2209.85           BUDGET ERROR =            -51.73


  PERCENT DISCREPANCY =             -0.20    PERCENT DISCREPANCY =             -0.11



1
 SUMMARY VOLUMETRIC BUDGET FOR GSFLOW 
 DATE: 11 11 1980              CUMULATIVE TIME STEP:      42
 MODFLOW STRESS PERIOD      2     CURRENT TIME STEP:      42     ITERATIONS:       7

 -----------------------------------------------------------------------------------

   CUMULATIVE VOLUMES               L**3   RATES FOR THIS TIME STEP           L**3/T
   ------------------                      ------------------------

                                     IN                                         IN
                                     --                                         --
        PRECIPITATION =        1573762.54          PRECIPITATION =         255182.19
           STREAMFLOW =                               STREAMFLOW =                  
     GW BOUNDARY FLOW =                         GW BOUNDARY FLOW =                  


                                    OUT                                        OUT
                                    ---                                        ---
   EVAPOTRANSPIRATION =        1038397.44     EVAPOTRANSPIRATION =          15857.62
           STREAMFLOW =         311057.26             STREAMFLOW =          10930.68
     GW BOUNDARY FLOW =          27247.98       GW BOUNDARY FLOW =            648.87

   INFLOWS - OUTFLOWS =         197059.86     INFLOWS - OUTFLOWS =         227745.03
             --------                                   --------

 TOTAL STORAGE CHANGE =         199735.88         STORAGE CHANGE =         227802.03
       --------------                             --------------
         LAND SURFACE =          76960.22           LAND SURFACE =          76747.38
            SOIL ZONE =        1038188.06              SOIL ZONE =         171660.15
     UNSATURATED ZONE =        -789154.87       UNSATURATED ZONE =         -16539.31
       SATURATED ZONE =        -126257.53         SATURATED ZONE =          -4066.18

 OVERALL BUDGET ERROR =          -2676.02           BUDGET ERROR =            -57.01


  PERCENT DISCREPANCY =             -0.17    PERCENT DISCREPANCY =             -0.02



1
 SUMMARY VOLUMETRIC BUDGET FOR GSFLOW 
 DATE: 11 18 1980              CUMULATIVE TIME STEP:      49
 MODFLOW STRESS PERIOD      2     CURRENT TIME STEP:      49     ITERATIONS:       7

 -----------------------------------------------------------------------------------

   CUMULATIVE VOLUMES               L**3   RATES FOR THIS TIME STEP           L**3/T
   ------------------                      ------------------------

                                     IN                                         IN
                                     --                                         --
        PRECIPITATION =        1573762.54          PRECIPITATION =                  
           STREAMFLOW =                               STREAMFLOW =                  
     GW BOUNDARY FLOW =                         GW BOUNDARY FLOW =                  


                                    OUT                                        OUT
                                    ---                                        ---
   EVAPOTRANSPIRATION =        1127563.17     EVAPOTRANSPIRATION =          15085.25
           STREAMFLOW =         374707.67             STREAMFLOW =           9411.55
     GW BOUNDARY FLOW =          31789.98       GW BOUNDARY FLOW =            648.87

   INFLOWS - OUTFLOWS =          39701.73     INFLOWS - OUTFLOWS =         -25145.68
             --------                                   --------

 TOTAL STORAGE CHANGE =          42923.17         STORAGE CHANGE =         -25082.92
       --------------                             --------------
         LAND SURFACE =           8139.47           LAND SURFACE =          -4965.50
            SOIL ZONE =        1096724.12              SOIL ZONE =            752.17
     UNSATURATED ZONE =        -903075.68       UNSATURATED ZONE =         -16032.36
       SATURATED ZONE =        -158864.75         SATURATED ZONE =          -4837.23

 OVERALL BUDGET ERROR =          -3221.44           BUDGET ERROR =            -62.75


  PERCENT DISCREPANCY =             -0.20    PERCENT DISCREPANCY =             -0.25



1
 SUMMARY VOLUMETRIC BUDGET FOR GSFLOW 
 DATE: 11 25 1980              CUMULATIVE TIME STEP:      56
 MODFLOW STRESS PERIOD      2     CURRENT TIME STEP:      56     ITERATIONS:       8

 -----------------------------------------------------------------------------------

   CUMULATIVE VOLUMES               L**3   RATES FOR THIS TIME STEP           L**3/T
   ------------------                      ------------------------

                                     IN                                         IN
                                     --                                         --
        PRECIPITATION =        1648816.13          PRECIPITATION =                  
           STREAMFLOW =                               STREAMFLOW =                  
     GW BOUNDARY FLOW =                         GW BOUNDARY FLOW =                  


                                    OUT                                        OUT
                                    ---                                        ---
   EVAPOTRANSPIRATION =        1204982.49     EVAPOTRANSPIRATION =           9313.74
           STREAMFLOW =         442698.91             STREAMFLOW =          10099.96
     GW BOUNDARY FLOW =          36332.35       GW BOUNDARY FLOW =            648.95

   INFLOWS - OUTFLOWS =         -35197.63     INFLOWS - OUTFLOWS =         -20062.66
             --------                                   --------

 TOTAL STORAGE CHANGE =         -31553.32         STORAGE CHANGE =         -20005.86
       --------------                             --------------
         LAND SURFACE =          54136.41           LAND SURFACE =          -9258.02
            SOIL ZONE =        1121990.42              SOIL ZONE =           9987.15
     UNSATURATED ZONE =       -1012762.04       UNSATURATED ZONE =         -15418.84
       SATURATED ZONE =        -194918.12         SATURATED ZONE =          -5316.15

 OVERALL BUDGET ERROR =          -3644.31           BUDGET ERROR =            -56.80


  PERCENT DISCREPANCY =             -0.22    PERCENT DISCREPANCY =             -0.28



1
 SUMMARY VOLUMETRIC BUDGET FOR GSFLOW 
 DATE: 12 02 1980              CUMULATIVE TIME STEP:      63
 MODFLOW STRESS PERIOD      2     CURRENT TIME STEP:      63     ITERATIONS:       7

 -----------------------------------------------------------------------------------

   CUMULATIVE VOLUMES               L**3   RATES FOR THIS TIME STEP           L**3/T
   ------------------                      ------------------------

                                     IN                                         IN
                                     --                                         --
        PRECIPITATION =        2076621.55          PRECIPITATION =                  
           STREAMFLOW =                               STREAMFLOW =                  
     GW BOUNDARY FLOW =                         GW BOUNDARY FLOW =                  


                                    OUT                                        OUT
                                    ---                                        ---
   EVAPOTRANSPIRATION =        1392461.97     EVAPOTRANSPIRATION =          34142.10
           STREAMFLOW =         528842.43             STREAMFLOW =          15563.90
     GW BOUNDARY FLOW =          40876.45       GW BOUNDARY FLOW =            649.47

   INFLOWS - OUTFLOWS =         114440.71     INFLOWS - OUTFLOWS =         -50355.47
             --------                                   --------

 TOTAL STORAGE CHANGE =         118509.00         STORAGE CHANGE =         -50295.70
       --------------                             --------------
         LAND SURFACE =         157031.20           LAND SURFACE =         -76789.76
            SOIL ZONE =        1306525.58              SOIL ZONE =          43940.22
     UNSATURATED ZONE =       -1114226.81       UNSATURATED ZONE =         -12880.76
       SATURATED ZONE =        -230820.97         SATURATED ZONE =          -4565.40

 OVERALL BUDGET ERROR =          -4068.29           BUDGET ERROR =            -59.77


  PERCENT DISCREPANCY =             -0.20    PERCENT DISCREPANCY =             -0.12



1
 SUMMARY VOLUMETRIC BUDGET FOR GSFLOW 
 DATE: 12 09 1980              CUMULATIVE TIME STEP:      70
 MODFLOW STRESS PERIOD      2     CURRENT TIME STEP:      70     ITERATIONS:       8

 -----------------------------------------------------------------------------------

   CUMULATIVE VOLUMES               L**3   RATES FOR THIS TIME STEP           L**3/T
   ------------------                      ------------------------

                                     IN                                         IN
                                     --                                         --
        PRECIPITATION =        4284363.63          PRECIPITATION =                  
           STREAMFLOW =                               STREAMFLOW =                  
     GW BOUNDARY FLOW =                         GW BOUNDARY FLOW =                  


                                    OUT                                        OUT
                                    ---                                        ---
   EVAPOTRANSPIRATION =        1418100.74     EVAPOTRANSPIRATION =           3258.35
           STREAMFLOW =         629612.19             STREAMFLOW =          14641.98
     GW BOUNDARY FLOW =          45423.50       GW BOUNDARY FLOW =            649.67

   INFLOWS - OUTFLOWS =        2191227.19     INFLOWS - OUTFLOWS =         -18550.00
             --------                                   --------

 TOTAL STORAGE CHANGE =        2195676.66         STORAGE CHANGE =         -18498.09
       --------------                             --------------
         LAND SURFACE =        2337504.39           LAND SURFACE =          -3258.35
            SOIL ZONE =        1340585.06              SOIL ZONE =           4990.81
     UNSATURATED ZONE =       -1212249.86       UNSATURATED ZONE =         -14211.86
       SATURATED ZONE =        -270162.94         SATURATED ZONE =          -6018.69

 OVERALL BUDGET ERROR =          -4449.46           BUDGET ERROR =            -51.91


  PERCENT DISCREPANCY =             -0.10    PERCENT DISCREPANCY =             -0.28



1
 SUMMARY VOLUMETRIC BUDGET FOR GSFLOW 
 DATE: 12 16 1980              CUMULATIVE TIME STEP:      77
 MODFLOW STRESS PERIOD      2     CURRENT TIME STEP:      77     ITERATIONS:       7

 -----------------------------------------------------------------------------------

   CUMULATIVE VOLUMES               L**3   RATES FOR THIS TIME STEP           L**3/T
   ------------------                      ------------------------

                                     IN                                         IN
                                     --                                         --
        PRECIPITATION =        4284363.63          PRECIPITATION =                  
           STREAMFLOW =                               STREAMFLOW =                  
     GW BOUNDARY FLOW =                         GW BOUNDARY FLOW =                  


                                    OUT                                        OUT
                                    ---                                        ---
   EVAPOTRANSPIRATION =        1562732.28     EVAPOTRANSPIRATION =          34482.61
           STREAMFLOW =         750790.22             STREAMFLOW =          25189.24
     GW BOUNDARY FLOW =          49972.25       GW BOUNDARY FLOW =            650.27

   INFLOWS - OUTFLOWS =        1920868.89     INFLOWS - OUTFLOWS =         -60322.11
             --------                                   --------

 TOTAL STORAGE CHANGE =        1925692.68         STORAGE CHANGE =         -60260.35
       --------------                             --------------
         LAND SURFACE =        2017009.25           LAND SURFACE =        -133032.47
            SOIL ZONE =        1521423.96              SOIL ZONE =          86266.43
     UNSATURATED ZONE =       -1302037.06       UNSATURATED ZONE =          -9050.44
       SATURATED ZONE =        -310703.48         SATURATED ZONE =          -4443.88

 OVERALL BUDGET ERROR =          -4823.79           BUDGET ERROR =            -61.76


  PERCENT DISCREPANCY =             -0.11    PERCENT DISCREPANCY =             -0.10



1
 SUMMARY VOLUMETRIC BUDGET FOR GSFLOW 
 DATE: 12 23 1980              CUMULATIVE TIME STEP:      84
 MODFLOW STRESS PERIOD      2     CURRENT TIME STEP:      84     ITERATIONS:       9

 -----------------------------------------------------------------------------------

   CUMULATIVE VOLUMES               L**3   RATES FOR THIS TIME STEP           L**3/T
   ------------------                      ------------------------

                                     IN                                         IN
                                     --                                         --
        PRECIPITATION =        4516757.54          PRECIPITATION =                  
           STREAMFLOW =                               STREAMFLOW =                  
     GW BOUNDARY FLOW =                         GW BOUNDARY FLOW =                  


                                    OUT                                        OUT
                                    ---                                        ---
   EVAPOTRANSPIRATION =        1770970.10     EVAPOTRANSPIRATION =          35848.50
           STREAMFLOW =         982596.67             STREAMFLOW =          31041.79
     GW BOUNDARY FLOW =          54532.96       GW BOUNDARY FLOW =            651.99

   INFLOWS - OUTFLOWS =        1708657.81     INFLOWS - OUTFLOWS =         -67542.28
             --------                                   --------

 TOTAL STORAGE CHANGE =        1713738.78         STORAGE CHANGE =         -67513.37
       --------------                             --------------
         LAND SURFACE =        1391476.45           LAND SURFACE =         -50626.27
            SOIL ZONE =        2002167.60              SOIL ZONE =          -6957.53
     UNSATURATED ZONE =       -1341502.51       UNSATURATED ZONE =          -5429.15
       SATURATED ZONE =        -338402.76         SATURATED ZONE =          -4500.42

 OVERALL BUDGET ERROR =          -5080.97           BUDGET ERROR =            -28.91


  PERCENT DISCREPANCY =             -0.11    PERCENT DISCREPANCY =             -0.04



1
 SUMMARY VOLUMETRIC BUDGET FOR GSFLOW 
 DATE: 12 30 1980              CUMULATIVE TIME STEP:      91
 MODFLOW STRESS PERIOD      2     CURRENT TIME STEP:      91     ITERATIONS:      11

 -----------------------------------------------------------------------------------

   CUMULATIVE VOLUMES               L**3   RATES FOR THIS TIME STEP           L**3/T
   ------------------                      ------------------------

                                     IN                                         IN
                                     --                                         --
        PRECIPITATION =        4516757.54          PRECIPITATION =                  
           STREAMFLOW =                               STREAMFLOW =                  
     GW BOUNDARY FLOW =                         GW BOUNDARY FLOW =                  


                                    OUT                                        OUT
                                    ---                                        ---
   EVAPOTRANSPIRATION =        2138692.35     EVAPOTRANSPIRATION =          47015.27
           STREAMFLOW =        1234060.36             STREAMFLOW =          27875.13
     GW BOUNDARY FLOW =          59100.24       GW BOUNDARY FLOW =            652.45

   INFLOWS - OUTFLOWS =        1084904.58     INFLOWS - OUTFLOWS =         -75542.85
             --------                                   --------

 TOTAL STORAGE CHANGE =        1090107.76         STORAGE CHANGE =         -75528.04
       --------------                             --------------
         LAND SURFACE =         579625.21           LAND SURFACE =         -42433.18
            SOIL ZONE =        2220031.33              SOIL ZONE =         -24993.60
     UNSATURATED ZONE =       -1346827.05       UNSATURATED ZONE =          -4041.38
       SATURATED ZONE =        -362721.74         SATURATED ZONE =          -4059.89

 OVERALL BUDGET ERROR =          -5203.18           BUDGET ERROR =            -14.81


  PERCENT DISCREPANCY =             -0.12    PERCENT DISCREPANCY =             -0.02



1
 SUMMARY VOLUMETRIC BUDGET FOR GSFLOW 
 DATE: 01 06 1981              CUMULATIVE TIME STEP:      98
 MODFLOW STRESS PERIOD      2     CURRENT TIME STEP:      98     ITERATIONS:       8

 -----------------------------------------------------------------------------------

   CUMULATIVE VOLUMES               L**3   RATES FOR THIS TIME STEP           L**3/T
   ------------------                      ------------------------

                                     IN                                         IN
                                     --                                         --
        PRECIPITATION =        5004445.43          PRECIPITATION =                  
           STREAMFLOW =                               STREAMFLOW =                  
     GW BOUNDARY FLOW =                         GW BOUNDARY FLOW =                  


                                    OUT                                        OUT
                                    ---                                        ---
   EVAPOTRANSPIRATION =        2356379.52     EVAPOTRANSPIRATION =          18975.60
           STREAMFLOW =        1383623.19             STREAMFLOW =          20185.76
     GW BOUNDARY FLOW =          63661.65       GW BOUNDARY FLOW =            651.16

   INFLOWS - OUTFLOWS =        1200781.07     INFLOWS - OUTFLOWS =         -39812.52
             --------                                   --------

 TOTAL STORAGE CHANGE =        1206139.11         STORAGE CHANGE =         -39781.25
       --------------                             --------------
         LAND SURFACE =         840075.39           LAND SURFACE =         -25549.72
            SOIL ZONE =        2184890.34              SOIL ZONE =           3428.87
     UNSATURATED ZONE =       -1417613.38       UNSATURATED ZONE =         -11742.73
       SATURATED ZONE =        -401213.24         SATURATED ZONE =          -5917.67

 OVERALL BUDGET ERROR =          -5358.04           BUDGET ERROR =            -31.26


  PERCENT DISCREPANCY =             -0.11    PERCENT DISCREPANCY =             -0.08



1
 SUMMARY VOLUMETRIC BUDGET FOR GSFLOW 
 DATE: 01 13 1981              CUMULATIVE TIME STEP:     105
 MODFLOW STRESS PERIOD      2     CURRENT TIME STEP:     105     ITERATIONS:       9

 -----------------------------------------------------------------------------------

   CUMULATIVE VOLUMES               L**3   RATES FOR THIS TIME STEP           L**3/T
   ------------------                      ------------------------

                                     IN                                         IN
                                     --                                         --
        PRECIPITATION =        5004445.43          PRECIPITATION =                  
           STREAMFLOW =                               STREAMFLOW =                  
     GW BOUNDARY FLOW =                         GW BOUNDARY FLOW =                  


                                    OUT                                        OUT
                                    ---                                        ---
   EVAPOTRANSPIRATION =        2558125.64     EVAPOTRANSPIRATION =          41907.78
           STREAMFLOW =        1528495.68             STREAMFLOW =          19825.16
     GW BOUNDARY FLOW =          68218.40       GW BOUNDARY FLOW =            650.81

   INFLOWS - OUTFLOWS =         849605.72     INFLOWS - OUTFLOWS =         -62383.75
             --------                                   --------

 TOTAL STORAGE CHANGE =         855239.65         STORAGE CHANGE =         -62362.25
       --------------                             --------------
         LAND SURFACE =         624161.64           LAND SURFACE =         -38673.92
            SOIL ZONE =        2164381.53              SOIL ZONE =          -8305.30
     UNSATURATED ZONE =       -1488260.18       UNSATURATED ZONE =          -9373.40
       SATURATED ZONE =        -445043.34         SATURATED ZONE =          -6009.63

 OVERALL BUDGET ERROR =          -5633.94           BUDGET ERROR =            -21.50


  PERCENT DISCREPANCY =             -0.11    PERCENT DISCREPANCY =             -0.03



1
 SUMMARY VOLUMETRIC BUDGET FOR GSFLOW 
 DATE: 01 20 1981              CUMULATIVE TIME STEP:     112
 MODFLOW STRESS PERIOD      2     CURRENT TIME STEP:     112     ITERATIONS:      14

 -----------------------------------------------------------------------------------

   CUMULATIVE VOLUMES               L**3   RATES FOR THIS TIME STEP           L**3/T
   ------------------                      ------------------------

                                     IN                                         IN
                                     --                                         --
        PRECIPITATION =        5170466.84          PRECIPITATION =          41505.35
           STREAMFLOW =                               STREAMFLOW =                  
     GW BOUNDARY FLOW =                         GW BOUNDARY FLOW =                  


                                    OUT                                        OUT
                                    ---                                        ---
   EVAPOTRANSPIRATION =        2823038.00     EVAPOTRANSPIRATION =          30808.36
           STREAMFLOW =        1670191.62             STREAMFLOW =          19981.65
     GW BOUNDARY FLOW =          72773.22       GW BOUNDARY FLOW =            650.64

   INFLOWS - OUTFLOWS =         604463.99     INFLOWS - OUTFLOWS =          -9935.30
             --------                                   --------

 TOTAL STORAGE CHANGE =         610376.06         STORAGE CHANGE =          -9924.25
       --------------                             --------------
         LAND SURFACE =         464145.88           LAND SURFACE =           8501.89
            SOIL ZONE =        2160014.45              SOIL ZONE =          -8883.56
     UNSATURATED ZONE =       -1523286.12       UNSATURATED ZONE =          -2783.93
       SATURATED ZONE =        -490498.15         SATURATED ZONE =          -6758.66

 OVERALL BUDGET ERROR =          -5912.07           BUDGET ERROR =            -11.05


  PERCENT DISCREPANCY =             -0.11    PERCENT DISCREPANCY =             -0.02



1
 SUMMARY VOLUMETRIC BUDGET FOR GSFLOW 
 DATE: 01 27 1981              CUMULATIVE TIME STEP:     119
 MODFLOW STRESS PERIOD      2     CURRENT TIME STEP:     119     ITERATIONS:       8

 -----------------------------------------------------------------------------------

   CUMULATIVE VOLUMES               L**3   RATES FOR THIS TIME STEP           L**3/T
   ------------------                      ------------------------

                                     IN                                         IN
                                     --                                         --
        PRECIPITATION =        8646540.08          PRECIPITATION =        2936503.63
           STREAMFLOW =                               STREAMFLOW =                  
     GW BOUNDARY FLOW =                         GW BOUNDARY FLOW =                  


                                    OUT                                        OUT
                                    ---                                        ---
   EVAPOTRANSPIRATION =        3045992.33     EVAPOTRANSPIRATION =          12639.57
           STREAMFLOW =        1813799.28             STREAMFLOW =          18560.04
     GW BOUNDARY FLOW =          77327.41       GW BOUNDARY FLOW =            650.42

   INFLOWS - OUTFLOWS =        3709421.05     INFLOWS - OUTFLOWS =        2904653.60
             --------                                   --------

 TOTAL STORAGE CHANGE =        3715464.94         STORAGE CHANGE =        2904677.19
       --------------                             --------------
         LAND SURFACE =        3592460.11           LAND SURFACE =        2923864.12
            SOIL ZONE =        2180746.65              SOIL ZONE =          -6181.31
     UNSATURATED ZONE =       -1521092.56       UNSATURATED ZONE =          -6029.16
       SATURATED ZONE =        -536649.26         SATURATED ZONE =          -6976.46

 OVERALL BUDGET ERROR =          -6043.88           BUDGET ERROR =            -23.59


  PERCENT DISCREPANCY =             -0.07    PERCENT DISCREPANCY =             -0.00



1
 SUMMARY VOLUMETRIC BUDGET FOR GSFLOW 
 DATE: 02 03 1981              CUMULATIVE TIME STEP:     126
 MODFLOW STRESS PERIOD      2     CURRENT TIME STEP:     126     ITERATIONS:       8

 -----------------------------------------------------------------------------------

   CUMULATIVE VOLUMES               L**3   RATES FOR THIS TIME STEP           L**3/T
   ------------------                      ------------------------

                                     IN                                         IN
                                     --                                         --
        PRECIPITATION =        1.1739D+07          PRECIPITATION =                  
           STREAMFLOW =                               STREAMFLOW =                  
     GW BOUNDARY FLOW =                         GW BOUNDARY FLOW =                  


                                    OUT                                        OUT
                                    ---                                        ---
   EVAPOTRANSPIRATION =        3081183.70     EVAPOTRANSPIRATION =           7106.06
           STREAMFLOW =        1940466.16             STREAMFLOW =          18014.63
     GW BOUNDARY FLOW =          81879.48       GW BOUNDARY FLOW =            650.25

   INFLOWS - OUTFLOWS =        6635159.44     INFLOWS - OUTFLOWS =         -25770.95
             --------                                   --------

 TOTAL STORAGE CHANGE =        6641391.51         STORAGE CHANGE =         -25736.86
       --------------                             --------------
         LAND SURFACE =        6649417.45           LAND SURFACE =          -7106.06
            SOIL ZONE =        2173099.57              SOIL ZONE =            511.96
     UNSATURATED ZONE =       -1592619.48       UNSATURATED ZONE =         -11418.79
       SATURATED ZONE =        -588506.03         SATURATED ZONE =          -7723.97

 OVERALL BUDGET ERROR =          -6232.07           BUDGET ERROR =            -34.09


  PERCENT DISCREPANCY =             -0.05    PERCENT DISCREPANCY =             -0.13



1
 SUMMARY VOLUMETRIC BUDGET FOR GSFLOW 
 DATE: 02 10 1981              CUMULATIVE TIME STEP:     133
 MODFLOW STRESS PERIOD      2     CURRENT TIME STEP:     133     ITERATIONS:       7

 -----------------------------------------------------------------------------------

   CUMULATIVE VOLUMES               L**3   RATES FOR THIS TIME STEP           L**3/T
   ------------------                      ------------------------

                                     IN                                         IN
                                     --                                         --
        PRECIPITATION =        1.1838D+07          PRECIPITATION =                  
           STREAMFLOW =                               STREAMFLOW =                  
     GW BOUNDARY FLOW =                         GW BOUNDARY FLOW =                  


                                    OUT                                        OUT
                                    ---                                        ---
   EVAPOTRANSPIRATION =        3202287.21     EVAPOTRANSPIRATION =          32343.27
           STREAMFLOW =        2066825.90             STREAMFLOW =          18077.51
     GW BOUNDARY FLOW =          86431.25       GW BOUNDARY FLOW =            650.24

   INFLOWS - OUTFLOWS =        6482708.91     INFLOWS - OUTFLOWS =         -51071.03
             --------                                   --------

 TOTAL STORAGE CHANGE =        6489219.00         STORAGE CHANGE =         -51014.23
       --------------                             --------------
         LAND SURFACE =        6627878.44           LAND SURFACE =         -32343.27
            SOIL ZONE =        2177173.86              SOIL ZONE =            536.75
     UNSATURATED ZONE =       -1670327.06       UNSATURATED ZONE =         -10787.22
       SATURATED ZONE =        -645506.24         SATURATED ZONE =          -8420.49

 OVERALL BUDGET ERROR =          -6510.09           BUDGET ERROR =            -56.80


  PERCENT DISCREPANCY =             -0.05    PERCENT DISCREPANCY =             -0.11



1
 SUMMARY VOLUMETRIC BUDGET FOR GSFLOW 
 DATE: 02 17 1981              CUMULATIVE TIME STEP:     140
 MODFLOW STRESS PERIOD      2     CURRENT TIME STEP:     140     ITERATIONS:      14

 -----------------------------------------------------------------------------------

   CUMULATIVE VOLUMES               L**3   RATES FOR THIS TIME STEP           L**3/T
   ------------------                      ------------------------

                                     IN                                         IN
                                     --                                         --
        PRECIPITATION =        1.2765D+07          PRECIPITATION =          68929.28
           STREAMFLOW =                               STREAMFLOW =                  
     GW BOUNDARY FLOW =                         GW BOUNDARY FLOW =                  


                                    OUT                                        OUT
                                    ---                                        ---
   EVAPOTRANSPIRATION =        3528054.10     EVAPOTRANSPIRATION =          59831.41
           STREAMFLOW =        2583149.29             STREAMFLOW =         120541.04
     GW BOUNDARY FLOW =          91003.92       GW BOUNDARY FLOW =            656.61

   INFLOWS - OUTFLOWS =        6562761.80     INFLOWS - OUTFLOWS =        -112099.78
             --------                                   --------

 TOTAL STORAGE CHANGE =        6569499.79         STORAGE CHANGE =        -112104.36
       --------------                             --------------
         LAND SURFACE =        5733342.75           LAND SURFACE =        -263707.47
            SOIL ZONE =        2942608.17              SOIL ZONE =          73803.10
     UNSATURATED ZONE =       -1441702.85       UNSATURATED ZONE =          75784.01
       SATURATED ZONE =        -664748.27         SATURATED ZONE =           2015.99

 OVERALL BUDGET ERROR =          -6737.99           BUDGET ERROR =              4.59


  PERCENT DISCREPANCY =             -0.05    PERCENT DISCREPANCY =              0.00



1
 SUMMARY VOLUMETRIC BUDGET FOR GSFLOW 
 DATE: 02 24 1981              CUMULATIVE TIME STEP:     147
 MODFLOW STRESS PERIOD      2     CURRENT TIME STEP:     147     ITERATIONS:      13

 -----------------------------------------------------------------------------------

   CUMULATIVE VOLUMES               L**3   RATES FOR THIS TIME STEP           L**3/T
   ------------------                      ------------------------

                                     IN                                         IN
                                     --                                         --
        PRECIPITATION =        1.3179D+07          PRECIPITATION =         344646.37
           STREAMFLOW =                               STREAMFLOW =                  
     GW BOUNDARY FLOW =                         GW BOUNDARY FLOW =                  


                                    OUT                                        OUT
                                    ---                                        ---
   EVAPOTRANSPIRATION =        3860430.20     EVAPOTRANSPIRATION =          18156.56
           STREAMFLOW =        3135375.15             STREAMFLOW =          50121.75
     GW BOUNDARY FLOW =          95596.38       GW BOUNDARY FLOW =            655.06

   INFLOWS - OUTFLOWS =        6087143.02     INFLOWS - OUTFLOWS =         275713.00
             --------                                   --------

 TOTAL STORAGE CHANGE =        6093791.02         STORAGE CHANGE =         275697.41
       --------------                             --------------
         LAND SURFACE =        5134001.57           LAND SURFACE =         302140.01
            SOIL ZONE =        2690697.59              SOIL ZONE =         -55877.06
     UNSATURATED ZONE =       -1087212.32       UNSATURATED ZONE =          27356.10
       SATURATED ZONE =        -643695.82         SATURATED ZONE =           2078.35

 OVERALL BUDGET ERROR =          -6648.00           BUDGET ERROR =             15.59


  PERCENT DISCREPANCY =             -0.05    PERCENT DISCREPANCY =              0.00



1
 SUMMARY VOLUMETRIC BUDGET FOR GSFLOW 
 DATE: 03 03 1981              CUMULATIVE TIME STEP:     154
 MODFLOW STRESS PERIOD      2     CURRENT TIME STEP:     154     ITERATIONS:      12

 -----------------------------------------------------------------------------------

   CUMULATIVE VOLUMES               L**3   RATES FOR THIS TIME STEP           L**3/T
   ------------------                      ------------------------

                                     IN                                         IN
                                     --                                         --
        PRECIPITATION =        1.3447D+07          PRECIPITATION =                  
           STREAMFLOW =                               STREAMFLOW =                  
     GW BOUNDARY FLOW =                         GW BOUNDARY FLOW =                  


                                    OUT                                        OUT
                                    ---                                        ---
   EVAPOTRANSPIRATION =        4007216.16     EVAPOTRANSPIRATION =          40644.00
           STREAMFLOW =        3355808.85             STREAMFLOW =          27084.93
     GW BOUNDARY FLOW =         100168.89       GW BOUNDARY FLOW =            652.26

   INFLOWS - OUTFLOWS =        5983409.14     INFLOWS - OUTFLOWS =         -68381.19
             --------                                   --------

 TOTAL STORAGE CHANGE =        5989895.11         STORAGE CHANGE =         -68402.34
       --------------                             --------------
         LAND SURFACE =        5236571.47           LAND SURFACE =         -57449.18
            SOIL ZONE =        2484606.27              SOIL ZONE =            480.16
     UNSATURATED ZONE =       -1080991.24       UNSATURATED ZONE =          -8871.63
       SATURATED ZONE =        -650291.39         SATURATED ZONE =          -2561.68

 OVERALL BUDGET ERROR =          -6485.97           BUDGET ERROR =             21.16


  PERCENT DISCREPANCY =             -0.05    PERCENT DISCREPANCY =              0.03



1
 SUMMARY VOLUMETRIC BUDGET FOR GSFLOW 
 DATE: 03 10 1981              CUMULATIVE TIME STEP:     161
 MODFLOW STRESS PERIOD      2     CURRENT TIME STEP:     161     ITERATIONS:      11

 -----------------------------------------------------------------------------------

   CUMULATIVE VOLUMES               L**3   RATES FOR THIS TIME STEP           L**3/T
   ------------------                      ------------------------

                                     IN                                         IN
                                     --                                         --
        PRECIPITATION =        1.3493D+07          PRECIPITATION =                  
           STREAMFLOW =                               STREAMFLOW =                  
     GW BOUNDARY FLOW =                         GW BOUNDARY FLOW =                  


                                    OUT                                        OUT
                                    ---                                        ---
   EVAPOTRANSPIRATION =        4319076.29     EVAPOTRANSPIRATION =          67192.35
           STREAMFLOW =        3576574.51             STREAMFLOW =          40234.29
     GW BOUNDARY FLOW =         104733.85       GW BOUNDARY FLOW =            652.69

   INFLOWS - OUTFLOWS =        5492556.49     INFLOWS - OUTFLOWS =        -108079.32
             --------                                   --------

 TOTAL STORAGE CHANGE =        5498927.27         STORAGE CHANGE =        -108095.87
       --------------                             --------------
         LAND SURFACE =        4665498.39           LAND SURFACE =        -147188.93
            SOIL ZONE =        2573181.65              SOIL ZONE =          24802.90
     UNSATURATED ZONE =       -1072511.00       UNSATURATED ZONE =          15690.57
       SATURATED ZONE =        -667241.77         SATURATED ZONE =          -1400.40

 OVERALL BUDGET ERROR =          -6370.77           BUDGET ERROR =             16.55


  PERCENT DISCREPANCY =             -0.05    PERCENT DISCREPANCY =              0.02



1
 SUMMARY VOLUMETRIC BUDGET FOR GSFLOW 
 DATE: 03 17 1981              CUMULATIVE TIME STEP:     168
 MODFLOW STRESS PERIOD      2     CURRENT TIME STEP:     168     ITERATIONS:       9

 -----------------------------------------------------------------------------------

   CUMULATIVE VOLUMES               L**3   RATES FOR THIS TIME STEP           L**3/T
   ------------------                      ------------------------

                                     IN                                         IN
                                     --                                         --
        PRECIPITATION =        1.3744D+07          PRECIPITATION =                  
           STREAMFLOW =                               STREAMFLOW =                  
     GW BOUNDARY FLOW =                         GW BOUNDARY FLOW =                  


                                    OUT                                        OUT
                                    ---                                        ---
   EVAPOTRANSPIRATION =        4635748.97     EVAPOTRANSPIRATION =          33262.65
           STREAMFLOW =        3792886.39             STREAMFLOW =          23573.42
     GW BOUNDARY FLOW =         109299.95       GW BOUNDARY FLOW =            651.77

   INFLOWS - OUTFLOWS =        5206555.58     INFLOWS - OUTFLOWS =         -57487.84
             --------                                   --------

 TOTAL STORAGE CHANGE =        5212813.36         STORAGE CHANGE =         -57502.62
       --------------                             --------------
         LAND SURFACE =        4532338.77           LAND SURFACE =         -32994.50
            SOIL ZONE =        2437301.78              SOIL ZONE =          -5008.23
     UNSATURATED ZONE =       -1068083.75       UNSATURATED ZONE =         -14648.18
       SATURATED ZONE =        -688743.44         SATURATED ZONE =          -4851.71

 OVERALL BUDGET ERROR =          -6257.78           BUDGET ERROR =             14.78


  PERCENT DISCREPANCY =             -0.05    PERCENT DISCREPANCY =              0.03



1
 SUMMARY VOLUMETRIC BUDGET FOR GSFLOW 
 DATE: 03 24 1981              CUMULATIVE TIME STEP:     175
 MODFLOW STRESS PERIOD      2     CURRENT TIME STEP:     175     ITERATIONS:       9

 -----------------------------------------------------------------------------------

   CUMULATIVE VOLUMES               L**3   RATES FOR THIS TIME STEP           L**3/T
   ------------------                      ------------------------

                                     IN                                         IN
                                     --                                         --
        PRECIPITATION =        1.4367D+07          PRECIPITATION =                  
           STREAMFLOW =                               STREAMFLOW =                  
     GW BOUNDARY FLOW =                         GW BOUNDARY FLOW =                  


                                    OUT                                        OUT
                                    ---                                        ---
   EVAPOTRANSPIRATION =        4955572.24     EVAPOTRANSPIRATION =          80764.17
           STREAMFLOW =        3957281.31             STREAMFLOW =          24994.49
     GW BOUNDARY FLOW =         113859.37       GW BOUNDARY FLOW =            651.25

   INFLOWS - OUTFLOWS =        5340032.60     INFLOWS - OUTFLOWS =        -106409.91
             --------                                   --------

 TOTAL STORAGE CHANGE =        5346263.25         STORAGE CHANGE =        -106409.79
       --------------                             --------------
         LAND SURFACE =        4882235.57           LAND SURFACE =         -56598.13
            SOIL ZONE =        2339095.40              SOIL ZONE =         -38018.90
     UNSATURATED ZONE =       -1147406.12       UNSATURATED ZONE =          -6131.54
       SATURATED ZONE =        -727661.60         SATURATED ZONE =          -5661.22

 OVERALL BUDGET ERROR =          -6230.65           BUDGET ERROR =             -0.12


  PERCENT DISCREPANCY =             -0.04    PERCENT DISCREPANCY =             -0.00



1
 SUMMARY VOLUMETRIC BUDGET FOR GSFLOW 
 DATE: 03 31 1981              CUMULATIVE TIME STEP:     182
 MODFLOW STRESS PERIOD      2     CURRENT TIME STEP:     182     ITERATIONS:      12

 -----------------------------------------------------------------------------------

   CUMULATIVE VOLUMES               L**3   RATES FOR THIS TIME STEP           L**3/T
   ------------------                      ------------------------

                                     IN                                         IN
                                     --                                         --
        PRECIPITATION =        1.5777D+07          PRECIPITATION =                  
           STREAMFLOW =                               STREAMFLOW =                  
     GW BOUNDARY FLOW =                         GW BOUNDARY FLOW =                  


                                    OUT                                        OUT
                                    ---                                        ---
   EVAPOTRANSPIRATION =        5343745.54     EVAPOTRANSPIRATION =          42424.06
           STREAMFLOW =        4404872.75             STREAMFLOW =          33611.26
     GW BOUNDARY FLOW =         118437.67       GW BOUNDARY FLOW =            653.14

   INFLOWS - OUTFLOWS =        5909692.02     INFLOWS - OUTFLOWS =         -76688.46
             --------                                   --------

 TOTAL STORAGE CHANGE =        5915825.40         STORAGE CHANGE =         -76712.78
       --------------                             --------------
         LAND SURFACE =        5101875.85           LAND SURFACE =         -42987.31
            SOIL ZONE =        2505576.86              SOIL ZONE =         -32440.35
     UNSATURATED ZONE =        -959518.74       UNSATURATED ZONE =           1215.66
       SATURATED ZONE =        -732108.57         SATURATED ZONE =          -2500.78

 OVERALL BUDGET ERROR =          -6133.37           BUDGET ERROR =             24.33


  PERCENT DISCREPANCY =             -0.04    PERCENT DISCREPANCY =              0.03



1
 SUMMARY VOLUMETRIC BUDGET FOR GSFLOW 
 DATE: 04 07 1981              CUMULATIVE TIME STEP:     189
 MODFLOW STRESS PERIOD      2     CURRENT TIME STEP:     189     ITERATIONS:      10

 -----------------------------------------------------------------------------------

   CUMULATIVE VOLUMES               L**3   RATES FOR THIS TIME STEP           L**3/T
   ------------------                      ------------------------

                                     IN                                         IN
                                     --                                         --
        PRECIPITATION =        1.6121D+07          PRECIPITATION =                  
           STREAMFLOW =                               STREAMFLOW =                  
     GW BOUNDARY FLOW =                         GW BOUNDARY FLOW =                  


                                    OUT                                        OUT
                                    ---                                        ---
   EVAPOTRANSPIRATION =        5938194.35     EVAPOTRANSPIRATION =          97287.85
           STREAMFLOW =        4699334.21             STREAMFLOW =          42093.18
     GW BOUNDARY FLOW =         123010.58       GW BOUNDARY FLOW =            653.55

   INFLOWS - OUTFLOWS =        5360928.47     INFLOWS - OUTFLOWS =        -140034.58
             --------                                   --------

 TOTAL STORAGE CHANGE =        5366929.98         STORAGE CHANGE =        -140050.82
       --------------                             --------------
         LAND SURFACE =        4536824.58           LAND SURFACE =        -138203.79
            SOIL ZONE =        2467010.86              SOIL ZONE =         -11866.23
     UNSATURATED ZONE =        -895180.64       UNSATURATED ZONE =          10867.60
       SATURATED ZONE =        -741724.82         SATURATED ZONE =           -848.40

 OVERALL BUDGET ERROR =          -6001.51           BUDGET ERROR =             16.24


  PERCENT DISCREPANCY =             -0.04    PERCENT DISCREPANCY =              0.01



1
 SUMMARY VOLUMETRIC BUDGET FOR GSFLOW 
 DATE: 04 14 1981              CUMULATIVE TIME STEP:     196
 MODFLOW STRESS PERIOD      2     CURRENT TIME STEP:     196     ITERATIONS:      13

 -----------------------------------------------------------------------------------

   CUMULATIVE VOLUMES               L**3   RATES FOR THIS TIME STEP           L**3/T
   ------------------                      ------------------------

                                     IN                                         IN
                                     --                                         --
        PRECIPITATION =        1.6121D+07          PRECIPITATION =                  
           STREAMFLOW =                               STREAMFLOW =                  
     GW BOUNDARY FLOW =                         GW BOUNDARY FLOW =                  


                                    OUT                                        OUT
                                    ---                                        ---
   EVAPOTRANSPIRATION =        6801623.51     EVAPOTRANSPIRATION =         187136.52
           STREAMFLOW =        5036539.73             STREAMFLOW =          60874.63
     GW BOUNDARY FLOW =         127586.22       GW BOUNDARY FLOW =            653.96

   INFLOWS - OUTFLOWS =        4155718.15     INFLOWS - OUTFLOWS =        -248665.10
             --------                                   --------

 TOTAL STORAGE CHANGE =        4161558.18         STORAGE CHANGE =        -248680.69
       --------------                             --------------
         LAND SURFACE =        3249108.93           LAND SURFACE =        -276414.16
            SOIL ZONE =        2438676.98              SOIL ZONE =           -699.24
     UNSATURATED ZONE =        -783762.63       UNSATURATED ZONE =          26661.50
       SATURATED ZONE =        -742465.10         SATURATED ZONE =           1771.21

 OVERALL BUDGET ERROR =          -5840.04           BUDGET ERROR =             15.58


  PERCENT DISCREPANCY =             -0.04    PERCENT DISCREPANCY =              0.01



1
 SUMMARY VOLUMETRIC BUDGET FOR GSFLOW 
 DATE: 04 21 1981              CUMULATIVE TIME STEP:     203
 MODFLOW STRESS PERIOD      2     CURRENT TIME STEP:     203     ITERATIONS:      16

 -----------------------------------------------------------------------------------

   CUMULATIVE VOLUMES               L**3   RATES FOR THIS TIME STEP           L**3/T
   ------------------                      ------------------------

                                     IN                                         IN
                                     --                                         --
        PRECIPITATION =        1.6310D+07          PRECIPITATION =                  
           STREAMFLOW =                               STREAMFLOW =                  
     GW BOUNDARY FLOW =                         GW BOUNDARY FLOW =                  


                                    OUT                                        OUT
                                    ---                                        ---
   EVAPOTRANSPIRATION =        7846023.73     EVAPOTRANSPIRATION =         153837.68
           STREAMFLOW =        5423210.01             STREAMFLOW =          53871.29
     GW BOUNDARY FLOW =         132160.56       GW BOUNDARY FLOW =            653.13

   INFLOWS - OUTFLOWS =        2908848.34     INFLOWS - OUTFLOWS =        -208362.10
             --------                                   --------

 TOTAL STORAGE CHANGE =        2914530.94         STORAGE CHANGE =        -208376.83
       --------------                             --------------
         LAND SURFACE =        1941586.43           LAND SURFACE =        -141315.80
            SOIL ZONE =        2324778.54              SOIL ZONE =         -93531.21
     UNSATURATED ZONE =        -625841.99       UNSATURATED ZONE =          23403.46
       SATURATED ZONE =        -725992.04         SATURATED ZONE =           3066.72

 OVERALL BUDGET ERROR =          -5682.60           BUDGET ERROR =             14.74


  PERCENT DISCREPANCY =             -0.03    PERCENT DISCREPANCY =              0.01



1
 SUMMARY VOLUMETRIC BUDGET FOR GSFLOW 
 DATE: 04 28 1981              CUMULATIVE TIME STEP:     210
 MODFLOW STRESS PERIOD      2     CURRENT TIME STEP:     210     ITERATIONS:      14

 -----------------------------------------------------------------------------------

   CUMULATIVE VOLUMES               L**3   RATES FOR THIS TIME STEP           L**3/T
   ------------------                      ------------------------

                                     IN                                         IN
                                     --                                         --
        PRECIPITATION =        1.6515D+07          PRECIPITATION =                  
           STREAMFLOW =                               STREAMFLOW =                  
     GW BOUNDARY FLOW =                         GW BOUNDARY FLOW =                  


                                    OUT                                        OUT
                                    ---                                        ---
   EVAPOTRANSPIRATION =        9104384.56     EVAPOTRANSPIRATION =         210382.40
           STREAMFLOW =        5683026.07             STREAMFLOW =          30376.28
     GW BOUNDARY FLOW =         136723.95       GW BOUNDARY FLOW =            650.98

   INFLOWS - OUTFLOWS =        1591298.30     INFLOWS - OUTFLOWS =        -241409.66
             --------                                   --------

 TOTAL STORAGE CHANGE =        1596798.85         STORAGE CHANGE =        -241440.59
       --------------                             --------------
         LAND SURFACE =        1047886.51           LAND SURFACE =        -108965.88
            SOIL ZONE =        1831232.75              SOIL ZONE =        -137894.83
     UNSATURATED ZONE =        -569479.94       UNSATURATED ZONE =           3852.23
       SATURATED ZONE =        -712840.47         SATURATED ZONE =           1567.89

 OVERALL BUDGET ERROR =          -5500.55           BUDGET ERROR =             30.94


  PERCENT DISCREPANCY =             -0.03    PERCENT DISCREPANCY =              0.01



1
 SUMMARY VOLUMETRIC BUDGET FOR GSFLOW 
 DATE: 05 05 1981              CUMULATIVE TIME STEP:     217
 MODFLOW STRESS PERIOD      2     CURRENT TIME STEP:     217     ITERATIONS:      14

 -----------------------------------------------------------------------------------

   CUMULATIVE VOLUMES               L**3   RATES FOR THIS TIME STEP           L**3/T
   ------------------                      ------------------------

                                     IN                                         IN
                                     --                                         --
        PRECIPITATION =        1.6515D+07          PRECIPITATION =                  
           STREAMFLOW =                               STREAMFLOW =                  
     GW BOUNDARY FLOW =                         GW BOUNDARY FLOW =                  


                                    OUT                                        OUT
                                    ---                                        ---
   EVAPOTRANSPIRATION =        9961456.74     EVAPOTRANSPIRATION =          46998.79
           STREAMFLOW =        5805700.53             STREAMFLOW =          11686.40
     GW BOUNDARY FLOW =         141272.74       GW BOUNDARY FLOW =            649.00

   INFLOWS - OUTFLOWS =         607002.88     INFLOWS - OUTFLOWS =         -59334.19
             --------                                   --------

 TOTAL STORAGE CHANGE =         612349.26         STORAGE CHANGE =         -59352.45
       --------------                             --------------
         LAND SURFACE =         583908.85           LAND SURFACE =         -19597.75
            SOIL ZONE =        1386704.33              SOIL ZONE =         -23375.83
     UNSATURATED ZONE =        -637102.86       UNSATURATED ZONE =         -14252.57
       SATURATED ZONE =        -721161.06         SATURATED ZONE =          -2126.30

 OVERALL BUDGET ERROR =          -5346.39           BUDGET ERROR =             18.26


  PERCENT DISCREPANCY =             -0.03    PERCENT DISCREPANCY =              0.03



1
 SUMMARY VOLUMETRIC BUDGET FOR GSFLOW 
 DATE: 05 12 1981              CUMULATIVE TIME STEP:     224
 MODFLOW STRESS PERIOD      2     CURRENT TIME STEP:     224     ITERATIONS:      12

 -----------------------------------------------------------------------------------

   CUMULATIVE VOLUMES               L**3   RATES FOR THIS TIME STEP           L**3/T
   ------------------                      ------------------------

                                     IN                                         IN
                                     --                                         --
        PRECIPITATION =        1.6515D+07          PRECIPITATION =                  
           STREAMFLOW =                               STREAMFLOW =                  
     GW BOUNDARY FLOW =                         GW BOUNDARY FLOW =                  


                                    OUT                                        OUT
                                    ---                                        ---
   EVAPOTRANSPIRATION =        1.0493D+07     EVAPOTRANSPIRATION =         102084.68
           STREAMFLOW =        5886627.75             STREAMFLOW =          12809.60
     GW BOUNDARY FLOW =         145812.70       GW BOUNDARY FLOW =            648.47

   INFLOWS - OUTFLOWS =         -10425.45     INFLOWS - OUTFLOWS =        -115542.75
             --------                                   --------

 TOTAL STORAGE CHANGE =          -5187.74         STORAGE CHANGE =        -115562.98
       --------------                             --------------
         LAND SURFACE =         364139.12           LAND SURFACE =         -39545.55
            SOIL ZONE =        1104793.54              SOIL ZONE =         -61277.97
     UNSATURATED ZONE =        -730166.79       UNSATURATED ZONE =         -10478.79
       SATURATED ZONE =        -743953.61         SATURATED ZONE =          -4260.66

 OVERALL BUDGET ERROR =          -5237.71           BUDGET ERROR =             20.23


  PERCENT DISCREPANCY =             -0.03    PERCENT DISCREPANCY =              0.02



1
 SUMMARY VOLUMETRIC BUDGET FOR GSFLOW 
 DATE: 05 19 1981              CUMULATIVE TIME STEP:     231
 MODFLOW STRESS PERIOD      2     CURRENT TIME STEP:     231     ITERATIONS:      19

 -----------------------------------------------------------------------------------

   CUMULATIVE VOLUMES               L**3   RATES FOR THIS TIME STEP           L**3/T
   ------------------                      ------------------------

                                     IN                                         IN
                                     --                                         --
        PRECIPITATION =        1.7837D+07          PRECIPITATION =         169045.43
           STREAMFLOW =                               STREAMFLOW =                  
     GW BOUNDARY FLOW =                         GW BOUNDARY FLOW =                  


                                    OUT                                        OUT
                                    ---                                        ---
   EVAPOTRANSPIRATION =        1.0839D+07     EVAPOTRANSPIRATION =          31098.89
           STREAMFLOW =        6041010.16             STREAMFLOW =          31760.13
     GW BOUNDARY FLOW =         150354.24       GW BOUNDARY FLOW =            649.97

   INFLOWS - OUTFLOWS =         806593.84     INFLOWS - OUTFLOWS =         105536.43
             --------                                   --------

 TOTAL STORAGE CHANGE =         811753.86         STORAGE CHANGE =         105522.54
       --------------                             --------------
         LAND SURFACE =         315733.71           LAND SURFACE =          16905.78
            SOIL ZONE =        2041615.51              SOIL ZONE =          86067.23
     UNSATURATED ZONE =        -768066.65       UNSATURATED ZONE =           6763.07
       SATURATED ZONE =        -777528.71         SATURATED ZONE =          -4213.54

 OVERALL BUDGET ERROR =          -5160.02           BUDGET ERROR =             13.90


  PERCENT DISCREPANCY =             -0.03    PERCENT DISCREPANCY =              0.01



1
 SUMMARY VOLUMETRIC BUDGET FOR GSFLOW 
 DATE: 05 26 1981              CUMULATIVE TIME STEP:     238
 MODFLOW STRESS PERIOD      2     CURRENT TIME STEP:     238     ITERATIONS:      14

 -----------------------------------------------------------------------------------

   CUMULATIVE VOLUMES               L**3   RATES FOR THIS TIME STEP           L**3/T
   ------------------                      ------------------------

                                     IN                                         IN
                                     --                                         --
        PRECIPITATION =        1.8252D+07          PRECIPITATION =         284303.67
           STREAMFLOW =                               STREAMFLOW =                  
     GW BOUNDARY FLOW =                         GW BOUNDARY FLOW =                  


                                    OUT                                        OUT
                                    ---                                        ---
   EVAPOTRANSPIRATION =        1.1632D+07     EVAPOTRANSPIRATION =         126247.52
           STREAMFLOW =        6178640.06             STREAMFLOW =          24103.67
     GW BOUNDARY FLOW =         154898.45       GW BOUNDARY FLOW =            648.95

   INFLOWS - OUTFLOWS =         286547.94     INFLOWS - OUTFLOWS =         133303.53
             --------                                   --------

 TOTAL STORAGE CHANGE =         291642.97         STORAGE CHANGE =         133298.36
       --------------                             --------------
         LAND SURFACE =         197572.68           LAND SURFACE =         -13397.86
            SOIL ZONE =        1707594.25              SOIL ZONE =         158541.21
     UNSATURATED ZONE =        -795330.16       UNSATURATED ZONE =          -6320.67
       SATURATED ZONE =        -818193.80         SATURATED ZONE =          -5524.32

 OVERALL BUDGET ERROR =          -5095.03           BUDGET ERROR =              5.17


  PERCENT DISCREPANCY =             -0.03    PERCENT DISCREPANCY =              0.00



1
 SUMMARY VOLUMETRIC BUDGET FOR GSFLOW 
 DATE: 06 02 1981              CUMULATIVE TIME STEP:     245
 MODFLOW STRESS PERIOD      2     CURRENT TIME STEP:     245     ITERATIONS:      17

 -----------------------------------------------------------------------------------

   CUMULATIVE VOLUMES               L**3   RATES FOR THIS TIME STEP           L**3/T
   ------------------                      ------------------------

                                     IN                                         IN
                                     --                                         --
        PRECIPITATION =        1.8318D+07          PRECIPITATION =          50869.96
           STREAMFLOW =                               STREAMFLOW =                  
     GW BOUNDARY FLOW =                         GW BOUNDARY FLOW =                  


                                    OUT                                        OUT
                                    ---                                        ---
   EVAPOTRANSPIRATION =        1.2460D+07     EVAPOTRANSPIRATION =          66459.16
           STREAMFLOW =        6264698.82             STREAMFLOW =           9108.34
     GW BOUNDARY FLOW =         159436.22       GW BOUNDARY FLOW =            647.71

   INFLOWS - OUTFLOWS =        -566286.60     INFLOWS - OUTFLOWS =         -25345.25
             --------                                   --------

 TOTAL STORAGE CHANGE =        -561236.50         STORAGE CHANGE =         -25353.96
       --------------                             --------------
         LAND SURFACE =         119474.97           LAND SURFACE =          25659.25
            SOIL ZONE =        1061803.94              SOIL ZONE =         -30933.49
     UNSATURATED ZONE =        -872821.58       UNSATURATED ZONE =         -12166.30
       SATURATED ZONE =        -869693.84         SATURATED ZONE =          -7913.43

 OVERALL BUDGET ERROR =          -5050.11           BUDGET ERROR =              8.71


  PERCENT DISCREPANCY =             -0.03    PERCENT DISCREPANCY =              0.01



1
 SUMMARY VOLUMETRIC BUDGET FOR GSFLOW 
 DATE: 06 09 1981              CUMULATIVE TIME STEP:     252
 MODFLOW STRESS PERIOD      2     CURRENT TIME STEP:     252     ITERATIONS:      15

 -----------------------------------------------------------------------------------

   CUMULATIVE VOLUMES               L**3   RATES FOR THIS TIME STEP           L**3/T
   ------------------                      ------------------------

                                     IN                                         IN
                                     --                                         --
        PRECIPITATION =        1.8318D+07          PRECIPITATION =                  
           STREAMFLOW =                               STREAMFLOW =                  
     GW BOUNDARY FLOW =                         GW BOUNDARY FLOW =                  


                                    OUT                                        OUT
                                    ---                                        ---
   EVAPOTRANSPIRATION =        1.3015D+07     EVAPOTRANSPIRATION =          55211.04
           STREAMFLOW =        6319503.81             STREAMFLOW =           7209.91
     GW BOUNDARY FLOW =         163967.62       GW BOUNDARY FLOW =            647.13

   INFLOWS - OUTFLOWS =       -1180357.14     INFLOWS - OUTFLOWS =         -63068.07
             --------                                   --------

 TOTAL STORAGE CHANGE =       -1175347.88         STORAGE CHANGE =         -63073.09
       --------------                             --------------
         LAND SURFACE =          39669.52           LAND SURFACE =          -4382.74
            SOIL ZONE =         669198.98              SOIL ZONE =         -38207.13
     UNSATURATED ZONE =        -955502.37       UNSATURATED ZONE =         -11855.53
       SATURATED ZONE =        -928714.01         SATURATED ZONE =          -8627.69

 OVERALL BUDGET ERROR =          -5009.26           BUDGET ERROR =              5.01


  PERCENT DISCREPANCY =             -0.03    PERCENT DISCREPANCY =              0.01



1
 SUMMARY VOLUMETRIC BUDGET FOR GSFLOW 
 DATE: 06 16 1981              CUMULATIVE TIME STEP:     259
 MODFLOW STRESS PERIOD      2     CURRENT TIME STEP:     259     ITERATIONS:      14

 -----------------------------------------------------------------------------------

   CUMULATIVE VOLUMES               L**3   RATES FOR THIS TIME STEP           L**3/T
   ------------------                      ------------------------

                                     IN                                         IN
                                     --                                         --
        PRECIPITATION =        1.8318D+07          PRECIPITATION =                  
           STREAMFLOW =                               STREAMFLOW =                  
     GW BOUNDARY FLOW =                         GW BOUNDARY FLOW =                  


                                    OUT                                        OUT
                                    ---                                        ---
   EVAPOTRANSPIRATION =        1.3226D+07     EVAPOTRANSPIRATION =          48993.46
           STREAMFLOW =        6367151.12             STREAMFLOW =           6659.55
     GW BOUNDARY FLOW =         168496.37       GW BOUNDARY FLOW =            646.86

   INFLOWS - OUTFLOWS =       -1443044.23     INFLOWS - OUTFLOWS =         -56299.87
             --------                                   --------

 TOTAL STORAGE CHANGE =       -1438073.45         STORAGE CHANGE =         -56307.08
       --------------                             --------------
         LAND SURFACE =          25589.68           LAND SURFACE =          -3042.77
            SOIL ZONE =         570034.69              SOIL ZONE =         -31619.69
     UNSATURATED ZONE =       -1042314.95       UNSATURATED ZONE =         -12613.05
       SATURATED ZONE =        -991382.86         SATURATED ZONE =          -9031.58

 OVERALL BUDGET ERROR =          -4970.78           BUDGET ERROR =              7.21


  PERCENT DISCREPANCY =             -0.03    PERCENT DISCREPANCY =              0.01



1
 SUMMARY VOLUMETRIC BUDGET FOR GSFLOW 
 DATE: 06 23 1981              CUMULATIVE TIME STEP:     266
 MODFLOW STRESS PERIOD      2     CURRENT TIME STEP:     266     ITERATIONS:      18

 -----------------------------------------------------------------------------------

   CUMULATIVE VOLUMES               L**3   RATES FOR THIS TIME STEP           L**3/T
   ------------------                      ------------------------

                                     IN                                         IN
                                     --                                         --
        PRECIPITATION =        1.8318D+07          PRECIPITATION =                  
           STREAMFLOW =                               STREAMFLOW =                  
     GW BOUNDARY FLOW =                         GW BOUNDARY FLOW =                  


                                    OUT                                        OUT
                                    ---                                        ---
   EVAPOTRANSPIRATION =        1.3567D+07     EVAPOTRANSPIRATION =          40171.06
           STREAMFLOW =        6411459.37             STREAMFLOW =           6080.55
     GW BOUNDARY FLOW =         173023.54       GW BOUNDARY FLOW =            646.64

   INFLOWS - OUTFLOWS =       -1832985.13     INFLOWS - OUTFLOWS =         -46898.25
             --------                                   --------

 TOTAL STORAGE CHANGE =       -1828063.14         STORAGE CHANGE =         -46903.82
       --------------                             --------------
         LAND SURFACE =           6959.28           LAND SURFACE =          -1578.51
            SOIL ZONE =         351460.09              SOIL ZONE =         -23572.53
     UNSATURATED ZONE =       -1129523.67       UNSATURATED ZONE =         -12186.80
       SATURATED ZONE =       -1056958.84         SATURATED ZONE =          -9565.98

 OVERALL BUDGET ERROR =          -4921.99           BUDGET ERROR =              5.58


  PERCENT DISCREPANCY =             -0.02    PERCENT DISCREPANCY =              0.01



1
 SUMMARY VOLUMETRIC BUDGET FOR GSFLOW 
 DATE: 06 30 1981              CUMULATIVE TIME STEP:     273
 MODFLOW STRESS PERIOD      2     CURRENT TIME STEP:     273     ITERATIONS:      14

 -----------------------------------------------------------------------------------

   CUMULATIVE VOLUMES               L**3   RATES FOR THIS TIME STEP           L**3/T
   ------------------                      ------------------------

                                     IN                                         IN
[...]
                                    ---                                        ---
   EVAPOTRANSPIRATION =        2.8414D+08     EVAPOTRANSPIRATION =          48648.27
           STREAMFLOW =        1.8453D+08             STREAMFLOW =           7341.70
     GW BOUNDARY FLOW =        3736462.13       GW BOUNDARY FLOW =            651.05

   INFLOWS - OUTFLOWS =       -7349917.52     INFLOWS - OUTFLOWS =         -56641.03
             --------                                   --------

 TOTAL STORAGE CHANGE =       -7322152.93         STORAGE CHANGE =         -56658.08
       --------------                             --------------
         LAND SURFACE =         214963.45           LAND SURFACE =         -10645.32
            SOIL ZONE =         328199.69              SOIL ZONE =         -24605.79
     UNSATURATED ZONE =        5413839.30       UNSATURATED ZONE =         -28174.17
       SATURATED ZONE =       -1.3279D+07         SATURATED ZONE =           6767.20

 OVERALL BUDGET ERROR =         -27764.60           BUDGET ERROR =             17.05


  PERCENT DISCREPANCY =             -0.01    PERCENT DISCREPANCY =              0.03



1
 SUMMARY VOLUMETRIC BUDGET FOR GSFLOW 
 DATE: 07 30 1996              CUMULATIVE TIME STEP:    5782
 MODFLOW STRESS PERIOD      2     CURRENT TIME STEP:    5782     ITERATIONS:      15

 -----------------------------------------------------------------------------------

   CUMULATIVE VOLUMES               L**3   RATES FOR THIS TIME STEP           L**3/T
   ------------------                      ------------------------

                                     IN                                         IN
                                     --                                         --
        PRECIPITATION =        4.6511D+08          PRECIPITATION =                  
           STREAMFLOW =                               STREAMFLOW =                  
     GW BOUNDARY FLOW =                         GW BOUNDARY FLOW =                  


                                    OUT                                        OUT
                                    ---                                        ---
   EVAPOTRANSPIRATION =        2.8445D+08     EVAPOTRANSPIRATION =          32535.45
           STREAMFLOW =        1.8458D+08             STREAMFLOW =           7041.95
     GW BOUNDARY FLOW =        3741017.75       GW BOUNDARY FLOW =            650.63

   INFLOWS - OUTFLOWS =       -7662736.46     INFLOWS - OUTFLOWS =         -40228.03
             --------                                   --------

 TOTAL STORAGE CHANGE =       -7635158.62         STORAGE CHANGE =         -40256.23
       --------------                             --------------
         LAND SURFACE =         152309.39           LAND SURFACE =          -7555.65
            SOIL ZONE =         228678.72              SOIL ZONE =         -11252.76
     UNSATURATED ZONE =        5216131.11       UNSATURATED ZONE =         -27811.11
       SATURATED ZONE =       -1.3232D+07         SATURATED ZONE =           6363.29

 OVERALL BUDGET ERROR =         -27577.84           BUDGET ERROR =             28.19


  PERCENT DISCREPANCY =             -0.01    PERCENT DISCREPANCY =              0.07



1
 SUMMARY VOLUMETRIC BUDGET FOR GSFLOW 
 DATE: 08 06 1996              CUMULATIVE TIME STEP:    5789
 MODFLOW STRESS PERIOD      2     CURRENT TIME STEP:    5789     ITERATIONS:      14

 -----------------------------------------------------------------------------------

   CUMULATIVE VOLUMES               L**3   RATES FOR THIS TIME STEP           L**3/T
   ------------------                      ------------------------

                                     IN                                         IN
                                     --                                         --
        PRECIPITATION =        4.6511D+08          PRECIPITATION =                  
           STREAMFLOW =                               STREAMFLOW =                  
     GW BOUNDARY FLOW =                         GW BOUNDARY FLOW =                  


                                    OUT                                        OUT
                                    ---                                        ---
   EVAPOTRANSPIRATION =        2.8464D+08     EVAPOTRANSPIRATION =          26066.63
           STREAMFLOW =        1.8463D+08             STREAMFLOW =           6760.73
     GW BOUNDARY FLOW =        3745571.90       GW BOUNDARY FLOW =            650.54

   INFLOWS - OUTFLOWS =       -7899331.47     INFLOWS - OUTFLOWS =         -33477.89
             --------                                   --------

 TOTAL STORAGE CHANGE =       -7871938.03         STORAGE CHANGE =         -33510.03
       --------------                             --------------
         LAND SURFACE =         111776.46           LAND SURFACE =          -5017.65
            SOIL ZONE =         181228.93              SOIL ZONE =          -7368.01
     UNSATURATED ZONE =        5027017.82       UNSATURATED ZONE =         -26294.13
       SATURATED ZONE =       -1.3192D+07         SATURATED ZONE =           5169.76

 OVERALL BUDGET ERROR =         -27393.45           BUDGET ERROR =             32.14


  PERCENT DISCREPANCY =             -0.01    PERCENT DISCREPANCY =              0.10



1
 SUMMARY VOLUMETRIC BUDGET FOR GSFLOW 
 DATE: 08 13 1996              CUMULATIVE TIME STEP:    5796
 MODFLOW STRESS PERIOD      2     CURRENT TIME STEP:    5796     ITERATIONS:      15

 -----------------------------------------------------------------------------------

   CUMULATIVE VOLUMES               L**3   RATES FOR THIS TIME STEP           L**3/T
   ------------------                      ------------------------

                                     IN                                         IN
                                     --                                         --
        PRECIPITATION =        4.6531D+08          PRECIPITATION =          54454.08
           STREAMFLOW =                               STREAMFLOW =                  
     GW BOUNDARY FLOW =                         GW BOUNDARY FLOW =                  


                                    OUT                                        OUT
                                    ---                                        ---
   EVAPOTRANSPIRATION =        2.8485D+08     EVAPOTRANSPIRATION =          36608.89
           STREAMFLOW =        1.8468D+08             STREAMFLOW =           7964.37
     GW BOUNDARY FLOW =        3750125.16       GW BOUNDARY FLOW =            650.48

   INFLOWS - OUTFLOWS =       -7964557.30     INFLOWS - OUTFLOWS =           9230.34
             --------                                   --------

 TOTAL STORAGE CHANGE =       -7937315.40         STORAGE CHANGE =           9209.96
       --------------                             --------------
         LAND SURFACE =         105220.94           LAND SURFACE =          -5194.35
            SOIL ZONE =         268652.14              SOIL ZONE =          35104.24
     UNSATURATED ZONE =        4846811.00       UNSATURATED ZONE =         -25123.58
       SATURATED ZONE =       -1.3158D+07         SATURATED ZONE =           4423.66

 OVERALL BUDGET ERROR =         -27241.90           BUDGET ERROR =             20.38


  PERCENT DISCREPANCY =             -0.01    PERCENT DISCREPANCY =              0.04



1
 SUMMARY VOLUMETRIC BUDGET FOR GSFLOW 
 DATE: 08 20 1996              CUMULATIVE TIME STEP:    5803
 MODFLOW STRESS PERIOD      2     CURRENT TIME STEP:    5803     ITERATIONS:      14

 -----------------------------------------------------------------------------------

   CUMULATIVE VOLUMES               L**3   RATES FOR THIS TIME STEP           L**3/T
   ------------------                      ------------------------

                                     IN                                         IN
                                     --                                         --
        PRECIPITATION =        4.6531D+08          PRECIPITATION =                  
           STREAMFLOW =                               STREAMFLOW =                  
     GW BOUNDARY FLOW =                         GW BOUNDARY FLOW =                  


                                    OUT                                        OUT
                                    ---                                        ---
   EVAPOTRANSPIRATION =        2.8507D+08     EVAPOTRANSPIRATION =          18172.47
           STREAMFLOW =        1.8473D+08             STREAMFLOW =           6515.33
     GW BOUNDARY FLOW =        3754676.83       GW BOUNDARY FLOW =            650.06

   INFLOWS - OUTFLOWS =       -8234730.94     INFLOWS - OUTFLOWS =         -25337.85
             --------                                   --------

 TOTAL STORAGE CHANGE =       -8207646.51         STORAGE CHANGE =         -25356.13
       --------------                             --------------
         LAND SURFACE =          44442.31           LAND SURFACE =          -2851.34
            SOIL ZONE =         203725.23              SOIL ZONE =          -1962.54
     UNSATURATED ZONE =        4675721.59       UNSATURATED ZONE =         -23939.60
       SATURATED ZONE =       -1.3132D+07         SATURATED ZONE =           3397.36

 OVERALL BUDGET ERROR =         -27084.42           BUDGET ERROR =             18.27


  PERCENT DISCREPANCY =             -0.01    PERCENT DISCREPANCY =              0.07



1
 SUMMARY VOLUMETRIC BUDGET FOR GSFLOW 
 DATE: 08 27 1996              CUMULATIVE TIME STEP:    5810
 MODFLOW STRESS PERIOD      2     CURRENT TIME STEP:    5810     ITERATIONS:      13

 -----------------------------------------------------------------------------------

   CUMULATIVE VOLUMES               L**3   RATES FOR THIS TIME STEP           L**3/T
   ------------------                      ------------------------

                                     IN                                         IN
                                     --                                         --
        PRECIPITATION =        4.6531D+08          PRECIPITATION =                  
           STREAMFLOW =                               STREAMFLOW =                  
     GW BOUNDARY FLOW =                         GW BOUNDARY FLOW =                  


                                    OUT                                        OUT
                                    ---                                        ---
   EVAPOTRANSPIRATION =        2.8523D+08     EVAPOTRANSPIRATION =          17151.34
           STREAMFLOW =        1.8477D+08             STREAMFLOW =           6350.00
     GW BOUNDARY FLOW =        3759225.69       GW BOUNDARY FLOW =            649.67

   INFLOWS - OUTFLOWS =       -8445047.76     INFLOWS - OUTFLOWS =         -24151.01
             --------                                   --------

 TOTAL STORAGE CHANGE =       -8418162.66         STORAGE CHANGE =         -24182.07
       --------------                             --------------
         LAND SURFACE =          21435.24           LAND SURFACE =          -2621.72
            SOIL ZONE =         159033.11              SOIL ZONE =          -1264.36
     UNSATURATED ZONE =        4514011.68       UNSATURATED ZONE =         -22615.16
       SATURATED ZONE =       -1.3113D+07         SATURATED ZONE =           2319.17

 OVERALL BUDGET ERROR =         -26885.10           BUDGET ERROR =             31.06


  PERCENT DISCREPANCY =             -0.01    PERCENT DISCREPANCY =              0.13



1
 SUMMARY VOLUMETRIC BUDGET FOR GSFLOW 
 DATE: 09 03 1996              CUMULATIVE TIME STEP:    5817
 MODFLOW STRESS PERIOD      2     CURRENT TIME STEP:    5817     ITERATIONS:      13

 -----------------------------------------------------------------------------------

   CUMULATIVE VOLUMES               L**3   RATES FOR THIS TIME STEP           L**3/T
   ------------------                      ------------------------

                                     IN                                         IN
                                     --                                         --
        PRECIPITATION =        4.6531D+08          PRECIPITATION =                  
           STREAMFLOW =                               STREAMFLOW =                  
     GW BOUNDARY FLOW =                         GW BOUNDARY FLOW =                  


                                    OUT                                        OUT
                                    ---                                        ---
   EVAPOTRANSPIRATION =        2.8535D+08     EVAPOTRANSPIRATION =          15217.38
           STREAMFLOW =        1.8482D+08             STREAMFLOW =           6235.35
     GW BOUNDARY FLOW =        3763771.74       GW BOUNDARY FLOW =            649.26

   INFLOWS - OUTFLOWS =       -8611886.00     INFLOWS - OUTFLOWS =         -22101.99
             --------                                   --------

 TOTAL STORAGE CHANGE =       -8585220.65         STORAGE CHANGE =         -22134.89
       --------------                             --------------
         LAND SURFACE =           7240.32           LAND SURFACE =          -1278.90
            SOIL ZONE =         147273.11              SOIL ZONE =           -799.22
     UNSATURATED ZONE =        4360407.80       UNSATURATED ZONE =         -21757.90
       SATURATED ZONE =       -1.3100D+07         SATURATED ZONE =           1701.14

 OVERALL BUDGET ERROR =         -26665.35           BUDGET ERROR =             32.90


  PERCENT DISCREPANCY =             -0.01    PERCENT DISCREPANCY =              0.15



1
 SUMMARY VOLUMETRIC BUDGET FOR GSFLOW 
 DATE: 09 10 1996              CUMULATIVE TIME STEP:    5824
 MODFLOW STRESS PERIOD      2     CURRENT TIME STEP:    5824     ITERATIONS:      13

 -----------------------------------------------------------------------------------

   CUMULATIVE VOLUMES               L**3   RATES FOR THIS TIME STEP           L**3/T
   ------------------                      ------------------------

                                     IN                                         IN
                                     --                                         --
        PRECIPITATION =        4.6531D+08          PRECIPITATION =                  
           STREAMFLOW =                               STREAMFLOW =                  
     GW BOUNDARY FLOW =                         GW BOUNDARY FLOW =                  


                                    OUT                                        OUT
                                    ---                                        ---
   EVAPOTRANSPIRATION =        2.8544D+08     EVAPOTRANSPIRATION =          13751.08
           STREAMFLOW =        1.8486D+08             STREAMFLOW =           6128.77
     GW BOUNDARY FLOW =        3768315.00       GW BOUNDARY FLOW =            648.86

   INFLOWS - OUTFLOWS =       -8749080.38     INFLOWS - OUTFLOWS =         -20528.71
             --------                                   --------

 TOTAL STORAGE CHANGE =       -8722642.07         STORAGE CHANGE =         -20555.99
       --------------                             --------------
         LAND SURFACE =           2510.71           LAND SURFACE =           -704.62
            SOIL ZONE =         154067.31              SOIL ZONE =            -25.97
     UNSATURATED ZONE =        4210962.69       UNSATURATED ZONE =         -20997.15
       SATURATED ZONE =       -1.3090D+07         SATURATED ZONE =           1171.75

 OVERALL BUDGET ERROR =         -26438.31           BUDGET ERROR =             27.28


  PERCENT DISCREPANCY =             -0.01    PERCENT DISCREPANCY =              0.13



1
 SUMMARY VOLUMETRIC BUDGET FOR GSFLOW 
 DATE: 09 17 1996              CUMULATIVE TIME STEP:    5831
 MODFLOW STRESS PERIOD      2     CURRENT TIME STEP:    5831     ITERATIONS:      12

 -----------------------------------------------------------------------------------

   CUMULATIVE VOLUMES               L**3   RATES FOR THIS TIME STEP           L**3/T
   ------------------                      ------------------------

                                     IN                                         IN
                                     --                                         --
        PRECIPITATION =        4.6637D+08          PRECIPITATION =                  
           STREAMFLOW =                               STREAMFLOW =                  
     GW BOUNDARY FLOW =                         GW BOUNDARY FLOW =                  


                                    OUT                                        OUT
                                    ---                                        ---
   EVAPOTRANSPIRATION =        2.8561D+08     EVAPOTRANSPIRATION =          52774.70
           STREAMFLOW =        1.8492D+08             STREAMFLOW =          10288.63
     GW BOUNDARY FLOW =        3772857.45       GW BOUNDARY FLOW =            649.26

   INFLOWS - OUTFLOWS =       -7941062.10     INFLOWS - OUTFLOWS =         -63712.60
             --------                                   --------

 TOTAL STORAGE CHANGE =       -7914889.13         STORAGE CHANGE =         -63750.85
       --------------                             --------------
         LAND SURFACE =            882.14           LAND SURFACE =         -33826.70
            SOIL ZONE =        1099376.97              SOIL ZONE =         -10303.41
     UNSATURATED ZONE =        4066370.30       UNSATURATED ZONE =         -20340.25
       SATURATED ZONE =       -1.3082D+07         SATURATED ZONE =            719.52

 OVERALL BUDGET ERROR =         -26172.97           BUDGET ERROR =             38.25


  PERCENT DISCREPANCY =             -0.01    PERCENT DISCREPANCY =              0.06



1
 SUMMARY VOLUMETRIC BUDGET FOR GSFLOW 
 DATE: 09 24 1996              CUMULATIVE TIME STEP:    5838
 MODFLOW STRESS PERIOD      2     CURRENT TIME STEP:    5838     ITERATIONS:      12

 -----------------------------------------------------------------------------------

   CUMULATIVE VOLUMES               L**3   RATES FOR THIS TIME STEP           L**3/T
   ------------------                      ------------------------

                                     IN                                         IN
                                     --                                         --
        PRECIPITATION =        4.6637D+08          PRECIPITATION =                  
           STREAMFLOW =                               STREAMFLOW =                  
     GW BOUNDARY FLOW =                         GW BOUNDARY FLOW =                  


                                    OUT                                        OUT
                                    ---                                        ---
   EVAPOTRANSPIRATION =        2.8608D+08     EVAPOTRANSPIRATION =          54889.78
           STREAMFLOW =        1.8498D+08             STREAMFLOW =           6701.02
     GW BOUNDARY FLOW =        3777398.33       GW BOUNDARY FLOW =            648.36

   INFLOWS - OUTFLOWS =       -8472346.14     INFLOWS - OUTFLOWS =         -62239.15
             --------                                   --------

 TOTAL STORAGE CHANGE =       -8446437.34         STORAGE CHANGE =         -62271.76
       --------------                             --------------
         LAND SURFACE =                             LAND SURFACE =                  
            SOIL ZONE =         705300.05              SOIL ZONE =         -42845.95
     UNSATURATED ZONE =        3928532.31       UNSATURATED ZONE =         -19285.88
       SATURATED ZONE =       -1.3080D+07         SATURATED ZONE =           -139.92

 OVERALL BUDGET ERROR =         -25908.80           BUDGET ERROR =             32.60


  PERCENT DISCREPANCY =             -0.01    PERCENT DISCREPANCY =              0.05



