1
 SUMMARY VOLUMETRIC BUDGET FOR GSFLOW 
 DATE: 10 07 1980              CUMULATIVE TIME STEP:       7
 MODFLOW STRESS PERIOD      2     CURRENT TIME STEP:       7     ITERATIONS:       6

 -----------------------------------------------------------------------------------

   CUMULATIVE VOLUMES               L**3   RATES FOR THIS TIME STEP           L**3/T
   ------------------                      ------------------------

                                     IN                                         IN
                                     --                                         --
        PRECIPITATION =                            PRECIPITATION =                  
           STREAMFLOW =                               STREAMFLOW =                  
     GW BOUNDARY FLOW =                         GW BOUNDARY FLOW =                  


                                    OUT                                        OUT
                                    ---                                        ---
   EVAPOTRANSPIRATION =          63501.87     EVAPOTRANSPIRATION =           9679.38
           STREAMFLOW =          42957.63             STREAMFLOW =           6065.77
     GW BOUNDARY FLOW =           4541.44       GW BOUNDARY FLOW =            648.70

   INFLOWS - OUTFLOWS =        -111000.94     INFLOWS - OUTFLOWS =         -16393.85
             --------                                   --------

 TOTAL STORAGE CHANGE =        -110545.15         STORAGE CHANGE =         -16325.53
       --------------                             --------------
         LAND SURFACE =                             LAND SURFACE =                  
            SOIL ZONE =          47015.18              SOIL ZONE =           6017.04
     UNSATURATED ZONE =        -144777.37       UNSATURATED ZONE =         -20360.11
       SATURATED ZONE =         -12782.96         SATURATED ZONE =          -1982.46

 OVERALL BUDGET ERROR =           -455.78           BUDGET ERROR =            -68.32


  PERCENT DISCREPANCY =             -0.41    PERCENT DISCREPANCY =             -0.42



1
 SUMMARY VOLUMETRIC BUDGET FOR GSFLOW 
 DATE: 10 14 1980              CUMULATIVE TIME STEP:      14
 MODFLOW STRESS PERIOD      2     CURRENT TIME STEP:      14     ITERATIONS:       6

 -----------------------------------------------------------------------------------

   CUMULATIVE VOLUMES               L**3   RATES FOR THIS TIME STEP           L**3/T
   ------------------                      ------------------------

                                     IN                                         IN
                                     --                                         --
        PRECIPITATION =         650779.83          PRECIPITATION =         164754.40
           STREAMFLOW =                               STREAMFLOW =                  
     GW BOUNDARY FLOW =                         GW BOUNDARY FLOW =                  


                                    OUT                                        OUT
                                    ---                                        ---
   EVAPOTRANSPIRATION =         147658.87     EVAPOTRANSPIRATION =           7975.53
           STREAMFLOW =          92677.70             STREAMFLOW =           7494.65
     GW BOUNDARY FLOW =           9082.78       GW BOUNDARY FLOW =            648.89

   INFLOWS - OUTFLOWS =         401360.49     INFLOWS - OUTFLOWS =         148635.32
             --------                                   --------

 TOTAL STORAGE CHANGE =         402331.01         STORAGE CHANGE =         148709.31
       --------------                             --------------
         LAND SURFACE =         277689.24           LAND SURFACE =         136623.45
            SOIL ZONE =         436768.61              SOIL ZONE =          34103.72
     UNSATURATED ZONE =        -284452.37       UNSATURATED ZONE =         -19623.49
       SATURATED ZONE =         -27674.48         SATURATED ZONE =          -2394.36

 OVERALL BUDGET ERROR =           -970.52           BUDGET ERROR =            -73.99


  PERCENT DISCREPANCY =             -0.15    PERCENT DISCREPANCY =             -0.04



1
 SUMMARY VOLUMETRIC BUDGET FOR GSFLOW 
 DATE: 10 21 1980              CUMULATIVE TIME STEP:      21
 MODFLOW STRESS PERIOD      2     CURRENT TIME STEP:      21     ITERATIONS:       6

 -----------------------------------------------------------------------------------

   CUMULATIVE VOLUMES               L**3   RATES FOR THIS TIME STEP           L**3/T
   ------------------                      ------------------------

                                     IN                                         IN
                                     --                                         --
        PRECIPITATION =         733157.03          PRECIPITATION =                  
           STREAMFLOW =                               STREAMFLOW =                  
     GW BOUNDARY FLOW =                         GW BOUNDARY FLOW =                  


                                    OUT                                        OUT
                                    ---                                        ---
   EVAPOTRANSPIRATION =         376396.56     EVAPOTRANSPIRATION =          37107.61
           STREAMFLOW =         144889.97             STREAMFLOW =           7105.83
     GW BOUNDARY FLOW =          13624.56       GW BOUNDARY FLOW =            648.77

   INFLOWS - OUTFLOWS =         198245.93     INFLOWS - OUTFLOWS =         -44862.21
             --------                                   --------

 TOTAL STORAGE CHANGE =         199726.05         STORAGE CHANGE =         -44781.47
       --------------                             --------------
         LAND SURFACE =           2250.88           LAND SURFACE =          -3153.72
            SOIL ZONE =         662442.73              SOIL ZONE =         -19836.14
     UNSATURATED ZONE =        -418622.05       UNSATURATED ZONE =         -18801.05
       SATURATED ZONE =         -46345.52         SATURATED ZONE =          -2990.56

 OVERALL BUDGET ERROR =          -1480.11           BUDGET ERROR =            -80.74


  PERCENT DISCREPANCY =             -0.20    PERCENT DISCREPANCY =             -0.18



1
 SUMMARY VOLUMETRIC BUDGET FOR GSFLOW 
 DATE: 10 28 1980              CUMULATIVE TIME STEP:      28
 MODFLOW STRESS PERIOD      2     CURRENT TIME STEP:      28     ITERATIONS:       6

 -----------------------------------------------------------------------------------

   CUMULATIVE VOLUMES               L**3   RATES FOR THIS TIME STEP           L**3/T
   ------------------                      ------------------------

                                     IN                                         IN
                                     --                                         --
        PRECIPITATION =        1070903.53          PRECIPITATION =                  
           STREAMFLOW =                               STREAMFLOW =                  
     GW BOUNDARY FLOW =                         GW BOUNDARY FLOW =                  


                                    OUT                                        OUT
                                    ---                                        ---
   EVAPOTRANSPIRATION =         557223.08     EVAPOTRANSPIRATION =          23594.60
           STREAMFLOW =         199833.45             STREAMFLOW =           7989.29
     GW BOUNDARY FLOW =          18165.91       GW BOUNDARY FLOW =            648.81

   INFLOWS - OUTFLOWS =         295681.09     INFLOWS - OUTFLOWS =         -32232.70
             --------                                   --------

 TOTAL STORAGE CHANGE =         297732.57         STORAGE CHANGE =         -32146.02
       --------------                             --------------
         LAND SURFACE =          24619.51           LAND SURFACE =         -30948.99
            SOIL ZONE =         889255.99              SOIL ZONE =          20270.80
     UNSATURATED ZONE =        -547225.20       UNSATURATED ZONE =         -17994.12
       SATURATED ZONE =         -68917.73         SATURATED ZONE =          -3473.70

 OVERALL BUDGET ERROR =          -2051.49           BUDGET ERROR =            -86.68


  PERCENT DISCREPANCY =             -0.19    PERCENT DISCREPANCY =             -0.27



1
 SUMMARY VOLUMETRIC BUDGET FOR GSFLOW 
 DATE: 11 04 1980              CUMULATIVE TIME STEP:      35
 MODFLOW STRESS PERIOD      2     CURRENT TIME STEP:      35     ITERATIONS:       8

 -----------------------------------------------------------------------------------

   CUMULATIVE VOLUMES               L**3   RATES FOR THIS TIME STEP           L**3/T
   ------------------                      ------------------------

                                     IN                                         IN
                                     --                                         --
        PRECIPITATION =        1070903.53          PRECIPITATION =                  
           STREAMFLOW =                               STREAMFLOW =                  
     GW BOUNDARY FLOW =                         GW BOUNDARY FLOW =                  


                                    OUT                                        OUT
                                    ---                                        ---
   EVAPOTRANSPIRATION =         854957.72     EVAPOTRANSPIRATION =          38438.28
           STREAMFLOW =         252301.16             STREAMFLOW =           7018.29
     GW BOUNDARY FLOW =          22706.92       GW BOUNDARY FLOW =            648.64

   INFLOWS - OUTFLOWS =         -59062.27     INFLOWS - OUTFLOWS =         -46105.21
             --------                                   --------

 TOTAL STORAGE CHANGE =         -56520.02         STORAGE CHANGE =         -46043.03
       --------------                             --------------
         LAND SURFACE =                             LAND SURFACE =                  
            SOIL ZONE =         710236.93              SOIL ZONE =         -24517.20
     UNSATURATED ZONE =        -670653.09       UNSATURATED ZONE =         -17361.18
       SATURATED ZONE =         -96103.86         SATURATED ZONE =          -4164.65

 OVERALL BUDGET ERROR =          -2542.24           BUDGET ERROR =            -62.18


  PERCENT DISCREPANCY =             -0.23    PERCENT DISCREPANCY =             -0.13



1
 SUMMARY VOLUMETRIC BUDGET FOR GSFLOW 
 DATE: 11 11 1980              CUMULATIVE TIME STEP:      42
 MODFLOW STRESS PERIOD      2     CURRENT TIME STEP:      42     ITERATIONS:       7

 -----------------------------------------------------------------------------------

   CUMULATIVE VOLUMES               L**3   RATES FOR THIS TIME STEP           L**3/T
   ------------------                      ------------------------

                                     IN                                         IN
                                     --                                         --
        PRECIPITATION =        1573762.54          PRECIPITATION =         255182.19
           STREAMFLOW =                               STREAMFLOW =                  
     GW BOUNDARY FLOW =                         GW BOUNDARY FLOW =                  


                                    OUT                                        OUT
                                    ---                                        ---
   EVAPOTRANSPIRATION =        1066452.17     EVAPOTRANSPIRATION =          14943.52
           STREAMFLOW =         308269.29             STREAMFLOW =          10769.61
     GW BOUNDARY FLOW =          27247.64       GW BOUNDARY FLOW =            648.84

   INFLOWS - OUTFLOWS =         171793.45     INFLOWS - OUTFLOWS =         228820.21
             --------                                   --------

 TOTAL STORAGE CHANGE =         174881.40         STORAGE CHANGE =         228885.13
       --------------                             --------------
         LAND SURFACE =          78612.95           LAND SURFACE =          76659.87
            SOIL ZONE =        1011575.18              SOIL ZONE =         172849.19
     UNSATURATED ZONE =        -789255.17       UNSATURATED ZONE =         -16535.08
       SATURATED ZONE =        -126051.56         SATURATED ZONE =          -4088.85

 OVERALL BUDGET ERROR =          -3087.95           BUDGET ERROR =            -64.91


  PERCENT DISCREPANCY =             -0.20    PERCENT DISCREPANCY =             -0.03



1
 SUMMARY VOLUMETRIC BUDGET FOR GSFLOW 
 DATE: 11 18 1980              CUMULATIVE TIME STEP:      49
 MODFLOW STRESS PERIOD      2     CURRENT TIME STEP:      49     ITERATIONS:       6

 -----------------------------------------------------------------------------------

   CUMULATIVE VOLUMES               L**3   RATES FOR THIS TIME STEP           L**3/T
   ------------------                      ------------------------

                                     IN                                         IN
                                     --                                         --
        PRECIPITATION =        1573762.54          PRECIPITATION =                  
           STREAMFLOW =                               STREAMFLOW =                  
     GW BOUNDARY FLOW =                         GW BOUNDARY FLOW =                  


                                    OUT                                        OUT
                                    ---                                        ---
   EVAPOTRANSPIRATION =        1154887.59     EVAPOTRANSPIRATION =          16641.07
           STREAMFLOW =         371174.57             STREAMFLOW =           9356.94
     GW BOUNDARY FLOW =          31789.52       GW BOUNDARY FLOW =            648.86

   INFLOWS - OUTFLOWS =          15910.86     INFLOWS - OUTFLOWS =         -26646.86
             --------                                   --------

 TOTAL STORAGE CHANGE =          19631.82         STORAGE CHANGE =         -26546.99
       --------------                             --------------
         LAND SURFACE =           8654.86           LAND SURFACE =          -6203.23
            SOIL ZONE =        1072829.96              SOIL ZONE =            475.71
     UNSATURATED ZONE =        -903178.43       UNSATURATED ZONE =         -16032.05
       SATURATED ZONE =        -158674.57         SATURATED ZONE =          -4787.42

 OVERALL BUDGET ERROR =          -3720.96           BUDGET ERROR =            -99.87


  PERCENT DISCREPANCY =             -0.24    PERCENT DISCREPANCY =             -0.38



1
 SUMMARY VOLUMETRIC BUDGET FOR GSFLOW 
 DATE: 11 25 1980              CUMULATIVE TIME STEP:      56
 MODFLOW STRESS PERIOD      2     CURRENT TIME STEP:      56     ITERATIONS:       8

 -----------------------------------------------------------------------------------

   CUMULATIVE VOLUMES               L**3   RATES FOR THIS TIME STEP           L**3/T
   ------------------                      ------------------------

                                     IN                                         IN
                                     --                                         --
        PRECIPITATION =        1648816.13          PRECIPITATION =                  
           STREAMFLOW =                               STREAMFLOW =                  
     GW BOUNDARY FLOW =                         GW BOUNDARY FLOW =                  


                                    OUT                                        OUT
                                    ---                                        ---
   EVAPOTRANSPIRATION =        1230201.86     EVAPOTRANSPIRATION =           8792.74
           STREAMFLOW =         438357.48             STREAMFLOW =           9949.47
     GW BOUNDARY FLOW =          36331.80       GW BOUNDARY FLOW =            648.93

   INFLOWS - OUTFLOWS =         -56075.01     INFLOWS - OUTFLOWS =         -19391.15
             --------                                   --------

 TOTAL STORAGE CHANGE =         -51801.94         STORAGE CHANGE =         -19327.07
       --------------                             --------------
         LAND SURFACE =          55166.83           LAND SURFACE =          -8744.58
            SOIL ZONE =        1100547.56              SOIL ZONE =          10160.26
     UNSATURATED ZONE =       -1012811.68       UNSATURATED ZONE =         -15404.75
       SATURATED ZONE =        -194704.65         SATURATED ZONE =          -5338.00

 OVERALL BUDGET ERROR =          -4273.07           BUDGET ERROR =            -64.08


  PERCENT DISCREPANCY =             -0.25    PERCENT DISCREPANCY =             -0.33



1
 SUMMARY VOLUMETRIC BUDGET FOR GSFLOW 
 DATE: 12 02 1980              CUMULATIVE TIME STEP:      63
 MODFLOW STRESS PERIOD      2     CURRENT TIME STEP:      63     ITERATIONS:       8

 -----------------------------------------------------------------------------------

   CUMULATIVE VOLUMES               L**3   RATES FOR THIS TIME STEP           L**3/T
   ------------------                      ------------------------

                                     IN                                         IN
                                     --                                         --
        PRECIPITATION =        2076621.55          PRECIPITATION =                  
           STREAMFLOW =                               STREAMFLOW =                  
     GW BOUNDARY FLOW =                         GW BOUNDARY FLOW =                  


                                    OUT                                        OUT
                                    ---                                        ---
   EVAPOTRANSPIRATION =        1423644.39     EVAPOTRANSPIRATION =          34189.30
           STREAMFLOW =         523308.02             STREAMFLOW =          15236.04
     GW BOUNDARY FLOW =          40875.74       GW BOUNDARY FLOW =            649.44

   INFLOWS - OUTFLOWS =          88793.41     INFLOWS - OUTFLOWS =         -50074.77
             --------                                   --------

 TOTAL STORAGE CHANGE =          93497.72         STORAGE CHANGE =         -50018.70
       --------------                             --------------
         LAND SURFACE =         152551.10           LAND SURFACE =         -75205.42
            SOIL ZONE =        1286014.26              SOIL ZONE =          42855.14
     UNSATURATED ZONE =       -1114355.05       UNSATURATED ZONE =         -13042.87
       SATURATED ZONE =        -230712.59         SATURATED ZONE =          -4625.55

 OVERALL BUDGET ERROR =          -4704.31           BUDGET ERROR =            -56.07


  PERCENT DISCREPANCY =             -0.23    PERCENT DISCREPANCY =             -0.11



1
 SUMMARY VOLUMETRIC BUDGET FOR GSFLOW 
 DATE: 12 09 1980              CUMULATIVE TIME STEP:      70
 MODFLOW STRESS PERIOD      2     CURRENT TIME STEP:      70     ITERATIONS:       8

 -----------------------------------------------------------------------------------

   CUMULATIVE VOLUMES               L**3   RATES FOR THIS TIME STEP           L**3/T
   ------------------                      ------------------------

                                     IN                                         IN
                                     --                                         --
        PRECIPITATION =        4284363.63          PRECIPITATION =                  
           STREAMFLOW =                               STREAMFLOW =                  
     GW BOUNDARY FLOW =                         GW BOUNDARY FLOW =                  


                                    OUT                                        OUT
                                    ---                                        ---
   EVAPOTRANSPIRATION =        1447062.75     EVAPOTRANSPIRATION =           2942.43
           STREAMFLOW =         622578.83             STREAMFLOW =          14460.07
     GW BOUNDARY FLOW =          45422.60       GW BOUNDARY FLOW =            649.64

   INFLOWS - OUTFLOWS =        2169299.45     INFLOWS - OUTFLOWS =         -18052.15
             --------                                   --------

 TOTAL STORAGE CHANGE =        2174478.01         STORAGE CHANGE =         -18003.63
       --------------                             --------------
         LAND SURFACE =        2335216.87           LAND SURFACE =          -2942.43
            SOIL ZONE =        1321846.03              SOIL ZONE =           5168.76
     UNSATURATED ZONE =       -1212718.31       UNSATURATED ZONE =         -14219.28
       SATURATED ZONE =        -269866.58         SATURATED ZONE =          -6010.68

 OVERALL BUDGET ERROR =          -5178.56           BUDGET ERROR =            -48.52


  PERCENT DISCREPANCY =             -0.12    PERCENT DISCREPANCY =             -0.27



1
 SUMMARY VOLUMETRIC BUDGET FOR GSFLOW 
 DATE: 12 16 1980              CUMULATIVE TIME STEP:      77
 MODFLOW STRESS PERIOD      2     CURRENT TIME STEP:      77     ITERATIONS:       7

 -----------------------------------------------------------------------------------

   CUMULATIVE VOLUMES               L**3   RATES FOR THIS TIME STEP           L**3/T
   ------------------                      ------------------------

                                     IN                                         IN
                                     --                                         --
        PRECIPITATION =        4284363.63          PRECIPITATION =                  
           STREAMFLOW =                               STREAMFLOW =                  
     GW BOUNDARY FLOW =                         GW BOUNDARY FLOW =                  


                                    OUT                                        OUT
                                    ---                                        ---
   EVAPOTRANSPIRATION =        1589062.10     EVAPOTRANSPIRATION =          33888.80
           STREAMFLOW =         742123.17             STREAMFLOW =          24744.72
     GW BOUNDARY FLOW =          49971.18       GW BOUNDARY FLOW =            650.23

   INFLOWS - OUTFLOWS =        1903207.18     INFLOWS - OUTFLOWS =         -59283.76
             --------                                   --------

 TOTAL STORAGE CHANGE =        1908813.25         STORAGE CHANGE =         -59213.39
       --------------                             --------------
         LAND SURFACE =        2023939.67           LAND SURFACE =        -129021.52
            SOIL ZONE =        1498072.32              SOIL ZONE =          83500.91
     UNSATURATED ZONE =       -1302770.92       UNSATURATED ZONE =          -9208.38
       SATURATED ZONE =        -310427.82         SATURATED ZONE =          -4484.40

 OVERALL BUDGET ERROR =          -5606.07           BUDGET ERROR =            -70.37


  PERCENT DISCREPANCY =             -0.13    PERCENT DISCREPANCY =             -0.12



1
 SUMMARY VOLUMETRIC BUDGET FOR GSFLOW 
 DATE: 12 23 1980              CUMULATIVE TIME STEP:      84
 MODFLOW STRESS PERIOD      2     CURRENT TIME STEP:      84     ITERATIONS:       9

 -----------------------------------------------------------------------------------

   CUMULATIVE VOLUMES               L**3   RATES FOR THIS TIME STEP           L**3/T
   ------------------                      ------------------------

                                     IN                                         IN
                                     --                                         --
        PRECIPITATION =        4516757.54          PRECIPITATION =                  
           STREAMFLOW =                               STREAMFLOW =                  
     GW BOUNDARY FLOW =                         GW BOUNDARY FLOW =                  


                                    OUT                                        OUT
                                    ---                                        ---
   EVAPOTRANSPIRATION =        1795115.20     EVAPOTRANSPIRATION =          35140.32
           STREAMFLOW =         968038.41             STREAMFLOW =          30092.10
     GW BOUNDARY FLOW =          54531.42       GW BOUNDARY FLOW =            651.90

   INFLOWS - OUTFLOWS =        1699072.50     INFLOWS - OUTFLOWS =         -65884.32
             --------                                   --------

 TOTAL STORAGE CHANGE =        1704991.75         STORAGE CHANGE =         -65849.76
       --------------                             --------------
         LAND SURFACE =        1433268.50           LAND SURFACE =         -48191.47
            SOIL ZONE =        1956990.64              SOIL ZONE =          -6624.44
     UNSATURATED ZONE =       -1346315.52       UNSATURATED ZONE =          -6293.64
       SATURATED ZONE =        -338951.86         SATURATED ZONE =          -4740.21

 OVERALL BUDGET ERROR =          -5919.25           BUDGET ERROR =            -34.56


  PERCENT DISCREPANCY =             -0.13    PERCENT DISCREPANCY =             -0.05



1
 SUMMARY VOLUMETRIC BUDGET FOR GSFLOW 
 DATE: 12 30 1980              CUMULATIVE TIME STEP:      91
 MODFLOW STRESS PERIOD      2     CURRENT TIME STEP:      91     ITERATIONS:       9

 -----------------------------------------------------------------------------------

   CUMULATIVE VOLUMES               L**3   RATES FOR THIS TIME STEP           L**3/T
   ------------------                      ------------------------

                                     IN                                         IN
                                     --                                         --
        PRECIPITATION =        4516757.54          PRECIPITATION =                  
           STREAMFLOW =                               STREAMFLOW =                  
     GW BOUNDARY FLOW =                         GW BOUNDARY FLOW =                  


                                    OUT                                        OUT
                                    ---                                        ---
   EVAPOTRANSPIRATION =        2155747.70     EVAPOTRANSPIRATION =          45887.78
           STREAMFLOW =        1211975.57             STREAMFLOW =          27166.33
     GW BOUNDARY FLOW =          59097.99       GW BOUNDARY FLOW =            652.35

   INFLOWS - OUTFLOWS =        1089936.27     INFLOWS - OUTFLOWS =         -73706.46
             --------                                   --------

 TOTAL STORAGE CHANGE =        1096036.85         STORAGE CHANGE =         -73683.12
       --------------                             --------------
         LAND SURFACE =         641159.81           LAND SURFACE =         -40370.18
            SOIL ZONE =        2181728.87              SOIL ZONE =         -23721.78
     UNSATURATED ZONE =       -1361626.66       UNSATURATED ZONE =          -5202.48
       SATURATED ZONE =        -365225.18         SATURATED ZONE =          -4388.69

 OVERALL BUDGET ERROR =          -6100.57           BUDGET ERROR =            -23.34


  PERCENT DISCREPANCY =             -0.13    PERCENT DISCREPANCY =             -0.03



1
 SUMMARY VOLUMETRIC BUDGET FOR GSFLOW 
 DATE: 01 06 1981              CUMULATIVE TIME STEP:      98
 MODFLOW STRESS PERIOD      2     CURRENT TIME STEP:      98     ITERATIONS:       8

 -----------------------------------------------------------------------------------

   CUMULATIVE VOLUMES               L**3   RATES FOR THIS TIME STEP           L**3/T
   ------------------                      ------------------------

                                     IN                                         IN
                                     --                                         --
        PRECIPITATION =        5004445.43          PRECIPITATION =                  
           STREAMFLOW =                               STREAMFLOW =                  
     GW BOUNDARY FLOW =                         GW BOUNDARY FLOW =                  


                                    OUT                                        OUT
                                    ---                                        ---
   EVAPOTRANSPIRATION =        2383672.46     EVAPOTRANSPIRATION =          21388.78
           STREAMFLOW =        1365823.90             STREAMFLOW =          21180.03
     GW BOUNDARY FLOW =          63659.51       GW BOUNDARY FLOW =            651.25

   INFLOWS - OUTFLOWS =        1191289.57     INFLOWS - OUTFLOWS =         -43220.06
             --------                                   --------

 TOTAL STORAGE CHANGE =        1197604.79         STORAGE CHANGE =         -43184.82
       --------------                             --------------
         LAND SURFACE =         837080.27           LAND SURFACE =         -30417.06
            SOIL ZONE =        2192500.02              SOIL ZONE =           3031.20
     UNSATURATED ZONE =       -1428736.88       UNSATURATED ZONE =         -10080.16
       SATURATED ZONE =        -403238.61         SATURATED ZONE =          -5718.80

 OVERALL BUDGET ERROR =          -6315.22           BUDGET ERROR =            -35.24


  PERCENT DISCREPANCY =             -0.13    PERCENT DISCREPANCY =             -0.08



1
 SUMMARY VOLUMETRIC BUDGET FOR GSFLOW 
 DATE: 01 13 1981              CUMULATIVE TIME STEP:     105
 MODFLOW STRESS PERIOD      2     CURRENT TIME STEP:     105     ITERATIONS:       7

 -----------------------------------------------------------------------------------

   CUMULATIVE VOLUMES               L**3   RATES FOR THIS TIME STEP           L**3/T
   ------------------                      ------------------------

                                     IN                                         IN
                                     --                                         --
        PRECIPITATION =        5004445.43          PRECIPITATION =                  
           STREAMFLOW =                               STREAMFLOW =                  
     GW BOUNDARY FLOW =                         GW BOUNDARY FLOW =                  


                                    OUT                                        OUT
                                    ---                                        ---
   EVAPOTRANSPIRATION =        2601185.10     EVAPOTRANSPIRATION =          44455.00
           STREAMFLOW =        1513579.41             STREAMFLOW =          20001.51
     GW BOUNDARY FLOW =          68216.62       GW BOUNDARY FLOW =            650.83

   INFLOWS - OUTFLOWS =         821464.30     INFLOWS - OUTFLOWS =         -65107.34
             --------                                   --------

 TOTAL STORAGE CHANGE =         828166.68         STORAGE CHANGE =         -65047.75
       --------------                             --------------
         LAND SURFACE =         626702.00           LAND SURFACE =         -38991.59
            SOIL ZONE =        2141680.03              SOIL ZONE =         -10379.31
     UNSATURATED ZONE =       -1493721.96       UNSATURATED ZONE =          -9178.88
       SATURATED ZONE =        -446493.39         SATURATED ZONE =          -6497.96

 OVERALL BUDGET ERROR =          -6702.38           BUDGET ERROR =            -59.60


  PERCENT DISCREPANCY =             -0.13    PERCENT DISCREPANCY =             -0.09



1
 SUMMARY VOLUMETRIC BUDGET FOR GSFLOW 
 DATE: 01 20 1981              CUMULATIVE TIME STEP:     112
 MODFLOW STRESS PERIOD      2     CURRENT TIME STEP:     112     ITERATIONS:       8

 -----------------------------------------------------------------------------------

   CUMULATIVE VOLUMES               L**3   RATES FOR THIS TIME STEP           L**3/T
   ------------------                      ------------------------

                                     IN                                         IN
                                     --                                         --
        PRECIPITATION =        5170466.84          PRECIPITATION =          41505.35
           STREAMFLOW =                               STREAMFLOW =                  
     GW BOUNDARY FLOW =                         GW BOUNDARY FLOW =                  


                                    OUT                                        OUT
                                    ---                                        ---
   EVAPOTRANSPIRATION =        2883458.13     EVAPOTRANSPIRATION =          35211.70
           STREAMFLOW =        1654860.46             STREAMFLOW =          20081.96
     GW BOUNDARY FLOW =          72771.39       GW BOUNDARY FLOW =            650.64

   INFLOWS - OUTFLOWS =         559376.86     INFLOWS - OUTFLOWS =         -14438.95
             --------                                   --------

 TOTAL STORAGE CHANGE =         566411.65         STORAGE CHANGE =         -14402.72
       --------------                             --------------
         LAND SURFACE =         436285.42           LAND SURFACE =           4326.68
            SOIL ZONE =        2147613.22              SOIL ZONE =         -10124.58
     UNSATURATED ZONE =       -1526438.66       UNSATURATED ZONE =          -1927.93
       SATURATED ZONE =        -491048.32         SATURATED ZONE =          -6676.89

 OVERALL BUDGET ERROR =          -7034.79           BUDGET ERROR =            -36.23


  PERCENT DISCREPANCY =             -0.14    PERCENT DISCREPANCY =             -0.06



1
 SUMMARY VOLUMETRIC BUDGET FOR GSFLOW 
 DATE: 01 27 1981              CUMULATIVE TIME STEP:     119
 MODFLOW STRESS PERIOD      2     CURRENT TIME STEP:     119     ITERATIONS:       9

 -----------------------------------------------------------------------------------

   CUMULATIVE VOLUMES               L**3   RATES FOR THIS TIME STEP           L**3/T
   ------------------                      ------------------------

                                     IN                                         IN
                                     --                                         --
        PRECIPITATION =        8646540.08          PRECIPITATION =        2936503.63
           STREAMFLOW =                               STREAMFLOW =                  
     GW BOUNDARY FLOW =                         GW BOUNDARY FLOW =                  


                                    OUT                                        OUT
                                    ---                                        ---
   EVAPOTRANSPIRATION =        3118027.08     EVAPOTRANSPIRATION =          13120.97
           STREAMFLOW =        1800243.55             STREAMFLOW =          18658.72
     GW BOUNDARY FLOW =          77325.71       GW BOUNDARY FLOW =            650.44

   INFLOWS - OUTFLOWS =        3650943.72     INFLOWS - OUTFLOWS =        2904073.51
             --------                                   --------

 TOTAL STORAGE CHANGE =        3658132.35         STORAGE CHANGE =        2904097.56
       --------------                             --------------
         LAND SURFACE =        3540180.85           LAND SURFACE =        2923352.24
            SOIL ZONE =        2170152.37              SOIL ZONE =          -7528.93
     UNSATURATED ZONE =       -1515771.90       UNSATURATED ZONE =          -4807.21
       SATURATED ZONE =        -536428.97         SATURATED ZONE =          -6918.55

 OVERALL BUDGET ERROR =          -7188.62           BUDGET ERROR =            -24.05


  PERCENT DISCREPANCY =             -0.08    PERCENT DISCREPANCY =             -0.00



1
 SUMMARY VOLUMETRIC BUDGET FOR GSFLOW 
 DATE: 02 03 1981              CUMULATIVE TIME STEP:     126
 MODFLOW STRESS PERIOD      2     CURRENT TIME STEP:     126     ITERATIONS:       9

 -----------------------------------------------------------------------------------

   CUMULATIVE VOLUMES               L**3   RATES FOR THIS TIME STEP           L**3/T
   ------------------                      ------------------------

                                     IN                                         IN
                                     --                                         --
        PRECIPITATION =        1.1739D+07          PRECIPITATION =                  
           STREAMFLOW =                               STREAMFLOW =                  
     GW BOUNDARY FLOW =                         GW BOUNDARY FLOW =                  


                                    OUT                                        OUT
                                    ---                                        ---
   EVAPOTRANSPIRATION =        3154540.13     EVAPOTRANSPIRATION =           6975.48
           STREAMFLOW =        1926772.85             STREAMFLOW =          17968.20
     GW BOUNDARY FLOW =          81877.80       GW BOUNDARY FLOW =            650.25

   INFLOWS - OUTFLOWS =        6575497.99     INFLOWS - OUTFLOWS =         -25593.93
             --------                                   --------

 TOTAL STORAGE CHANGE =        6582920.49         STORAGE CHANGE =         -25567.41
       --------------                             --------------
         LAND SURFACE =        6595816.50           LAND SURFACE =          -6975.48
            SOIL ZONE =        2159029.84              SOIL ZONE =            484.49
     UNSATURATED ZONE =       -1583652.80       UNSATURATED ZONE =         -11360.55
       SATURATED ZONE =        -588273.05         SATURATED ZONE =          -7715.87

 OVERALL BUDGET ERROR =          -7422.50           BUDGET ERROR =            -26.53


  PERCENT DISCREPANCY =             -0.06    PERCENT DISCREPANCY =             -0.10



1
 SUMMARY VOLUMETRIC BUDGET FOR GSFLOW 
 DATE: 02 10 1981              CUMULATIVE TIME STEP:     133
 MODFLOW STRESS PERIOD      2     CURRENT TIME STEP:     133     ITERATIONS:       7

 -----------------------------------------------------------------------------------

   CUMULATIVE VOLUMES               L**3   RATES FOR THIS TIME STEP           L**3/T
   ------------------                      ------------------------

                                     IN                                         IN
                                     --                                         --
        PRECIPITATION =        1.1838D+07          PRECIPITATION =                  
           STREAMFLOW =                               STREAMFLOW =                  
     GW BOUNDARY FLOW =                         GW BOUNDARY FLOW =                  


                                    OUT                                        OUT
                                    ---                                        ---
   EVAPOTRANSPIRATION =        3279941.19     EVAPOTRANSPIRATION =          32880.06
           STREAMFLOW =        2052818.63             STREAMFLOW =          18033.59
     GW BOUNDARY FLOW =          86429.54       GW BOUNDARY FLOW =            650.24

   INFLOWS - OUTFLOWS =        6419063.91     INFLOWS - OUTFLOWS =         -51563.88
             --------                                   --------

 TOTAL STORAGE CHANGE =        6426753.46         STORAGE CHANGE =         -51490.96
       --------------                             --------------
         LAND SURFACE =        6569979.95           LAND SURFACE =         -32880.06
            SOIL ZONE =        2163257.01              SOIL ZONE =            586.04
     UNSATURATED ZONE =       -1661831.49       UNSATURATED ZONE =         -10834.20
       SATURATED ZONE =        -644652.00         SATURATED ZONE =          -8362.74

 OVERALL BUDGET ERROR =          -7689.55           BUDGET ERROR =            -72.93


  PERCENT DISCREPANCY =             -0.06    PERCENT DISCREPANCY =             -0.14



1
 SUMMARY VOLUMETRIC BUDGET FOR GSFLOW 
 DATE: 02 17 1981              CUMULATIVE TIME STEP:     140
 MODFLOW STRESS PERIOD      2     CURRENT TIME STEP:     140     ITERATIONS:      14

 -----------------------------------------------------------------------------------

   CUMULATIVE VOLUMES               L**3   RATES FOR THIS TIME STEP           L**3/T
   ------------------                      ------------------------

                                     IN                                         IN
                                     --                                         --
        PRECIPITATION =        1.2765D+07          PRECIPITATION =          68929.28
           STREAMFLOW =                               STREAMFLOW =                  
     GW BOUNDARY FLOW =                         GW BOUNDARY FLOW =                  


                                    OUT                                        OUT
                                    ---                                        ---
   EVAPOTRANSPIRATION =        3618038.99     EVAPOTRANSPIRATION =          68607.56
           STREAMFLOW =        2593988.37             STREAMFLOW =         124795.59
     GW BOUNDARY FLOW =          91003.32       GW BOUNDARY FLOW =            656.82

   INFLOWS - OUTFLOWS =        6461938.43     INFLOWS - OUTFLOWS =        -125130.70
             --------                                   --------

 TOTAL STORAGE CHANGE =        6469903.93         STORAGE CHANGE =        -125117.36
       --------------                             --------------
         LAND SURFACE =        5590061.11           LAND SURFACE =        -278671.93
            SOIL ZONE =        2957465.75              SOIL ZONE =          72146.95
     UNSATURATED ZONE =       -1416561.11       UNSATURATED ZONE =          78967.09
       SATURATED ZONE =        -661061.82         SATURATED ZONE =           2440.53

 OVERALL BUDGET ERROR =          -7965.51           BUDGET ERROR =            -13.34


  PERCENT DISCREPANCY =             -0.06    PERCENT DISCREPANCY =             -0.01



1
 SUMMARY VOLUMETRIC BUDGET FOR GSFLOW 
 DATE: 02 24 1981              CUMULATIVE TIME STEP:     147
 MODFLOW STRESS PERIOD      2     CURRENT TIME STEP:     147     ITERATIONS:      14

 -----------------------------------------------------------------------------------

   CUMULATIVE VOLUMES               L**3   RATES FOR THIS TIME STEP           L**3/T
   ------------------                      ------------------------

                                     IN                                         IN
                                     --                                         --
        PRECIPITATION =        1.3179D+07          PRECIPITATION =         344646.37
           STREAMFLOW =                               STREAMFLOW =                  
     GW BOUNDARY FLOW =                         GW BOUNDARY FLOW =                  


                                    OUT                                        OUT
                                    ---                                        ---
   EVAPOTRANSPIRATION =        3959360.57     EVAPOTRANSPIRATION =          18832.76
           STREAMFLOW =        3151282.94             STREAMFLOW =          52010.86
     GW BOUNDARY FLOW =          95596.36       GW BOUNDARY FLOW =            655.14

   INFLOWS - OUTFLOWS =        5972304.87     INFLOWS - OUTFLOWS =         273147.61
             --------                                   --------

 TOTAL STORAGE CHANGE =        5980235.01         STORAGE CHANGE =         273149.50
       --------------                             --------------
         LAND SURFACE =        4984244.21           LAND SURFACE =         286368.61
            SOIL ZONE =        2697055.35              SOIL ZONE =         -43259.43
     UNSATURATED ZONE =       -1063478.75       UNSATURATED ZONE =          27624.36
       SATURATED ZONE =        -637585.80         SATURATED ZONE =           2415.95

 OVERALL BUDGET ERROR =          -7930.14           BUDGET ERROR =             -1.89


  PERCENT DISCREPANCY =             -0.06    PERCENT DISCREPANCY =             -0.00



1
 SUMMARY VOLUMETRIC BUDGET FOR GSFLOW 
 DATE: 03 03 1981              CUMULATIVE TIME STEP:     154
 MODFLOW STRESS PERIOD      2     CURRENT TIME STEP:     154     ITERATIONS:      11

 -----------------------------------------------------------------------------------

   CUMULATIVE VOLUMES               L**3   RATES FOR THIS TIME STEP           L**3/T
   ------------------                      ------------------------

                                     IN                                         IN
                                     --                                         --
        PRECIPITATION =        1.3447D+07          PRECIPITATION =                  
           STREAMFLOW =                               STREAMFLOW =                  
     GW BOUNDARY FLOW =                         GW BOUNDARY FLOW =                  


                                    OUT                                        OUT
                                    ---                                        ---
   EVAPOTRANSPIRATION =        4120043.30     EVAPOTRANSPIRATION =          45353.75
           STREAMFLOW =        3375067.54             STREAMFLOW =          27755.59
     GW BOUNDARY FLOW =         100169.25       GW BOUNDARY FLOW =            652.32

   INFLOWS - OUTFLOWS =        5851322.95     INFLOWS - OUTFLOWS =         -73761.65
             --------                                   --------

 TOTAL STORAGE CHANGE =        5859141.69         STORAGE CHANGE =         -73780.34
       --------------                             --------------
         LAND SURFACE =        5068137.31           LAND SURFACE =         -66041.98
            SOIL ZONE =        2489341.12              SOIL ZONE =           2843.65
     UNSATURATED ZONE =       -1055831.97       UNSATURATED ZONE =          -8515.44
       SATURATED ZONE =        -642504.77         SATURATED ZONE =          -2066.57

 OVERALL BUDGET ERROR =          -7818.74           BUDGET ERROR =             18.69


  PERCENT DISCREPANCY =             -0.06    PERCENT DISCREPANCY =              0.03



1
 SUMMARY VOLUMETRIC BUDGET FOR GSFLOW 
 DATE: 03 10 1981              CUMULATIVE TIME STEP:     161
 MODFLOW STRESS PERIOD      2     CURRENT TIME STEP:     161     ITERATIONS:      10

 -----------------------------------------------------------------------------------

   CUMULATIVE VOLUMES               L**3   RATES FOR THIS TIME STEP           L**3/T
   ------------------                      ------------------------

                                     IN                                         IN
                                     --                                         --
        PRECIPITATION =        1.3493D+07          PRECIPITATION =                  
           STREAMFLOW =                               STREAMFLOW =                  
     GW BOUNDARY FLOW =                         GW BOUNDARY FLOW =                  


                                    OUT                                        OUT
                                    ---                                        ---
   EVAPOTRANSPIRATION =        4465832.88     EVAPOTRANSPIRATION =          72811.00
           STREAMFLOW =        3610951.86             STREAMFLOW =          43640.63
     GW BOUNDARY FLOW =         104735.29       GW BOUNDARY FLOW =            652.93

   INFLOWS - OUTFLOWS =        5311421.12     INFLOWS - OUTFLOWS =        -117104.56
             --------                                   --------

 TOTAL STORAGE CHANGE =        5319169.10         STORAGE CHANGE =        -117113.89
       --------------                             --------------
         LAND SURFACE =        4391652.97           LAND SURFACE =        -169089.79
            SOIL ZONE =        2603391.76              SOIL ZONE =          28907.12
     UNSATURATED ZONE =       -1021442.06       UNSATURATED ZONE =          23464.68
       SATURATED ZONE =        -654433.57         SATURATED ZONE =           -395.90

 OVERALL BUDGET ERROR =          -7747.98           BUDGET ERROR =              9.33


  PERCENT DISCREPANCY =             -0.06    PERCENT DISCREPANCY =              0.01



1
 SUMMARY VOLUMETRIC BUDGET FOR GSFLOW 
 DATE: 03 17 1981              CUMULATIVE TIME STEP:     168
 MODFLOW STRESS PERIOD      2     CURRENT TIME STEP:     168     ITERATIONS:       9

 -----------------------------------------------------------------------------------

   CUMULATIVE VOLUMES               L**3   RATES FOR THIS TIME STEP           L**3/T
   ------------------                      ------------------------

                                     IN                                         IN
                                     --                                         --
        PRECIPITATION =        1.3744D+07          PRECIPITATION =                  
           STREAMFLOW =                               STREAMFLOW =                  
     GW BOUNDARY FLOW =                         GW BOUNDARY FLOW =                  


                                    OUT                                        OUT
                                    ---                                        ---
   EVAPOTRANSPIRATION =        4834242.64     EVAPOTRANSPIRATION =          40234.36
           STREAMFLOW =        3837911.58             STREAMFLOW =          24123.64
     GW BOUNDARY FLOW =         109302.55       GW BOUNDARY FLOW =            651.87

   INFLOWS - OUTFLOWS =        4963034.11     INFLOWS - OUTFLOWS =         -65009.88
             --------                                   --------

 TOTAL STORAGE CHANGE =        4970687.87         STORAGE CHANGE =         -65019.01
       --------------                             --------------
         LAND SURFACE =        4202420.68           LAND SURFACE =         -39897.13
            SOIL ZONE =        2437967.38              SOIL ZONE =          -5416.39
     UNSATURATED ZONE =        -999395.30       UNSATURATED ZONE =         -15649.72
       SATURATED ZONE =        -670304.89         SATURATED ZONE =          -4055.78

 OVERALL BUDGET ERROR =          -7653.76           BUDGET ERROR =              9.13


  PERCENT DISCREPANCY =             -0.06    PERCENT DISCREPANCY =              0.01



1
 SUMMARY VOLUMETRIC BUDGET FOR GSFLOW 
 DATE: 03 24 1981              CUMULATIVE TIME STEP:     175
 MODFLOW STRESS PERIOD      2     CURRENT TIME STEP:     175     ITERATIONS:       9

 -----------------------------------------------------------------------------------

   CUMULATIVE VOLUMES               L**3   RATES FOR THIS TIME STEP           L**3/T
   ------------------                      ------------------------

                                     IN                                         IN
                                     --                                         --
        PRECIPITATION =        1.4367D+07          PRECIPITATION =                  
           STREAMFLOW =                               STREAMFLOW =                  
     GW BOUNDARY FLOW =                         GW BOUNDARY FLOW =                  


                                    OUT                                        OUT
                                    ---                                        ---
   EVAPOTRANSPIRATION =        5190019.98     EVAPOTRANSPIRATION =          87428.11
           STREAMFLOW =        4013557.52             STREAMFLOW =          26791.94
     GW BOUNDARY FLOW =         113862.97       GW BOUNDARY FLOW =            651.45

   INFLOWS - OUTFLOWS =        5049305.04     INFLOWS - OUTFLOWS =        -114871.50
             --------                                   --------

 TOTAL STORAGE CHANGE =        5056983.66         STORAGE CHANGE =        -114872.22
       --------------                             --------------
         LAND SURFACE =        4477696.12           LAND SURFACE =         -65035.10
            SOIL ZONE =        2350761.93              SOIL ZONE =         -41060.98
     UNSATURATED ZONE =       -1068612.45       UNSATURATED ZONE =          -3965.79
       SATURATED ZONE =        -702861.95         SATURATED ZONE =          -4810.34

 OVERALL BUDGET ERROR =          -7678.62           BUDGET ERROR =              0.72


  PERCENT DISCREPANCY =             -0.05    PERCENT DISCREPANCY =              0.00



1
 SUMMARY VOLUMETRIC BUDGET FOR GSFLOW 
 DATE: 03 31 1981              CUMULATIVE TIME STEP:     182
 MODFLOW STRESS PERIOD      2     CURRENT TIME STEP:     182     ITERATIONS:      12

 -----------------------------------------------------------------------------------

   CUMULATIVE VOLUMES               L**3   RATES FOR THIS TIME STEP           L**3/T
   ------------------                      ------------------------

                                     IN                                         IN
                                     --                                         --
        PRECIPITATION =        1.5777D+07          PRECIPITATION =                  
           STREAMFLOW =                               STREAMFLOW =                  
     GW BOUNDARY FLOW =                         GW BOUNDARY FLOW =                  


                                    OUT                                        OUT
                                    ---                                        ---
   EVAPOTRANSPIRATION =        5619957.37     EVAPOTRANSPIRATION =          54090.27
           STREAMFLOW =        4522341.89             STREAMFLOW =          37103.96
     GW BOUNDARY FLOW =         118444.98       GW BOUNDARY FLOW =            653.60

   INFLOWS - OUTFLOWS =        5516003.75     INFLOWS - OUTFLOWS =         -91847.83
             --------                                   --------

 TOTAL STORAGE CHANGE =        5523616.47         STORAGE CHANGE =         -91862.34
       --------------                             --------------
         LAND SURFACE =        4494242.72           LAND SURFACE =         -55488.75
            SOIL ZONE =        2547235.52              SOIL ZONE =         -41751.81
     UNSATURATED ZONE =        -823290.34       UNSATURATED ZONE =           5945.54
       SATURATED ZONE =        -694571.43         SATURATED ZONE =           -567.31

 OVERALL BUDGET ERROR =          -7612.72           BUDGET ERROR =             14.51


  PERCENT DISCREPANCY =             -0.05    PERCENT DISCREPANCY =              0.02



1
 SUMMARY VOLUMETRIC BUDGET FOR GSFLOW 
 DATE: 04 07 1981              CUMULATIVE TIME STEP:     189
 MODFLOW STRESS PERIOD      2     CURRENT TIME STEP:     189     ITERATIONS:      10

 -----------------------------------------------------------------------------------

   CUMULATIVE VOLUMES               L**3   RATES FOR THIS TIME STEP           L**3/T
   ------------------                      ------------------------

                                     IN                                         IN
                                     --                                         --
        PRECIPITATION =        1.6121D+07          PRECIPITATION =                  
           STREAMFLOW =                               STREAMFLOW =                  
     GW BOUNDARY FLOW =                         GW BOUNDARY FLOW =                  


                                    OUT                                        OUT
                                    ---                                        ---
   EVAPOTRANSPIRATION =        6246023.61     EVAPOTRANSPIRATION =         103845.38
           STREAMFLOW =        4840627.68             STREAMFLOW =          43396.02
     GW BOUNDARY FLOW =         123020.28       GW BOUNDARY FLOW =            653.73

   INFLOWS - OUTFLOWS =        4911796.05     INFLOWS - OUTFLOWS =        -147895.13
             --------                                   --------

 TOTAL STORAGE CHANGE =        4919269.12         STORAGE CHANGE =        -147921.56
       --------------                             --------------
         LAND SURFACE =        3870170.36           LAND SURFACE =        -138668.80
            SOIL ZONE =        2478555.89              SOIL ZONE =         -20336.67
     UNSATURATED ZONE =        -738861.87       UNSATURATED ZONE =          10761.33
       SATURATED ZONE =        -690595.27         SATURATED ZONE =            322.58

 OVERALL BUDGET ERROR =          -7473.07           BUDGET ERROR =             26.43


  PERCENT DISCREPANCY =             -0.05    PERCENT DISCREPANCY =              0.02



1
 SUMMARY VOLUMETRIC BUDGET FOR GSFLOW 
 DATE: 04 14 1981              CUMULATIVE TIME STEP:     196
 MODFLOW STRESS PERIOD      2     CURRENT TIME STEP:     196     ITERATIONS:      13

 -----------------------------------------------------------------------------------

   CUMULATIVE VOLUMES               L**3   RATES FOR THIS TIME STEP           L**3/T
   ------------------                      ------------------------

                                     IN                                         IN
                                     --                                         --
        PRECIPITATION =        1.6121D+07          PRECIPITATION =                  
           STREAMFLOW =                               STREAMFLOW =                  
     GW BOUNDARY FLOW =                         GW BOUNDARY FLOW =                  


                                    OUT                                        OUT
                                    ---                                        ---
   EVAPOTRANSPIRATION =        7156713.13     EVAPOTRANSPIRATION =         191911.71
           STREAMFLOW =        5167758.72             STREAMFLOW =          55462.53
     GW BOUNDARY FLOW =         127595.66       GW BOUNDARY FLOW =            653.68

   INFLOWS - OUTFLOWS =        3669400.11     INFLOWS - OUTFLOWS =        -248027.92
             --------                                   --------

 TOTAL STORAGE CHANGE =        3676764.68         STORAGE CHANGE =        -248035.18
       --------------                             --------------
         LAND SURFACE =        2621455.97           LAND SURFACE =        -253007.68
            SOIL ZONE =        2386983.22              SOIL ZONE =         -16793.08
     UNSATURATED ZONE =        -647785.17       UNSATURATED ZONE =          19710.85
       SATURATED ZONE =        -683889.33         SATURATED ZONE =           2054.73

 OVERALL BUDGET ERROR =          -7364.58           BUDGET ERROR =              7.26


  PERCENT DISCREPANCY =             -0.05    PERCENT DISCREPANCY =              0.00



1
 SUMMARY VOLUMETRIC BUDGET FOR GSFLOW 
 DATE: 04 21 1981              CUMULATIVE TIME STEP:     203
 MODFLOW STRESS PERIOD      2     CURRENT TIME STEP:     203     ITERATIONS:      12

 -----------------------------------------------------------------------------------

   CUMULATIVE VOLUMES               L**3   RATES FOR THIS TIME STEP           L**3/T
   ------------------                      ------------------------

                                     IN                                         IN
                                     --                                         --
        PRECIPITATION =        1.6310D+07          PRECIPITATION =                  
           STREAMFLOW =                               STREAMFLOW =                  
     GW BOUNDARY FLOW =                         GW BOUNDARY FLOW =                  


                                    OUT                                        OUT
                                    ---                                        ---
   EVAPOTRANSPIRATION =        8228675.36     EVAPOTRANSPIRATION =         152246.56
           STREAMFLOW =        5506935.84             STREAMFLOW =          45782.51
     GW BOUNDARY FLOW =         132167.10       GW BOUNDARY FLOW =            652.63

   INFLOWS - OUTFLOWS =        2442464.34     INFLOWS - OUTFLOWS =        -198681.70
             --------                                   --------

 TOTAL STORAGE CHANGE =        2449709.85         STORAGE CHANGE =        -198709.10
       --------------                             --------------
         LAND SURFACE =        1440926.25           LAND SURFACE =        -121359.42
            SOIL ZONE =        2205131.64              SOIL ZONE =         -97194.13
     UNSATURATED ZONE =        -529420.81       UNSATURATED ZONE =          16974.98
       SATURATED ZONE =        -666927.22         SATURATED ZONE =           2869.46

 OVERALL BUDGET ERROR =          -7245.52           BUDGET ERROR =             27.40


  PERCENT DISCREPANCY =             -0.04    PERCENT DISCREPANCY =              0.01



1
 SUMMARY VOLUMETRIC BUDGET FOR GSFLOW 
 DATE: 04 28 1981              CUMULATIVE TIME STEP:     210
 MODFLOW STRESS PERIOD      2     CURRENT TIME STEP:     210     ITERATIONS:      14

 -----------------------------------------------------------------------------------

   CUMULATIVE VOLUMES               L**3   RATES FOR THIS TIME STEP           L**3/T
   ------------------                      ------------------------

                                     IN                                         IN
                                     --                                         --
        PRECIPITATION =        1.6515D+07          PRECIPITATION =                  
           STREAMFLOW =                               STREAMFLOW =                  
     GW BOUNDARY FLOW =                         GW BOUNDARY FLOW =                  


                                    OUT                                        OUT
                                    ---                                        ---
   EVAPOTRANSPIRATION =        9467139.60     EVAPOTRANSPIRATION =         200395.24
           STREAMFLOW =        5719014.52             STREAMFLOW =          24666.57
     GW BOUNDARY FLOW =         136726.59       GW BOUNDARY FLOW =            650.47

   INFLOWS - OUTFLOWS =        1192552.18     INFLOWS - OUTFLOWS =        -225712.28
             --------                                   --------

 TOTAL STORAGE CHANGE =        1199689.64         STORAGE CHANGE =        -225728.45
       --------------                             --------------
         LAND SURFACE =         691530.95           LAND SURFACE =         -83509.90
            SOIL ZONE =        1694929.15              SOIL ZONE =        -138423.30
     UNSATURATED ZONE =        -527338.58       UNSATURATED ZONE =          -4064.23
       SATURATED ZONE =        -659431.89         SATURATED ZONE =            268.99

 OVERALL BUDGET ERROR =          -7137.46           BUDGET ERROR =             16.16


  PERCENT DISCREPANCY =             -0.04    PERCENT DISCREPANCY =              0.01



1
 SUMMARY VOLUMETRIC BUDGET FOR GSFLOW 
 DATE: 05 05 1981              CUMULATIVE TIME STEP:     217
 MODFLOW STRESS PERIOD      2     CURRENT TIME STEP:     217     ITERATIONS:      13

 -----------------------------------------------------------------------------------

   CUMULATIVE VOLUMES               L**3   RATES FOR THIS TIME STEP           L**3/T
   ------------------                      ------------------------

                                     IN                                         IN
                                     --                                         --
        PRECIPITATION =        1.6515D+07          PRECIPITATION =                  
           STREAMFLOW =                               STREAMFLOW =                  
     GW BOUNDARY FLOW =                         GW BOUNDARY FLOW =                  


                                    OUT                                        OUT
                                    ---                                        ---
   EVAPOTRANSPIRATION =        1.0318D+07     EVAPOTRANSPIRATION =          47812.20
           STREAMFLOW =        5824912.88             STREAMFLOW =          10857.17
     GW BOUNDARY FLOW =         141272.99       GW BOUNDARY FLOW =            648.80

   INFLOWS - OUTFLOWS =         231359.67     INFLOWS - OUTFLOWS =         -59318.18
             --------                                   --------

 TOTAL STORAGE CHANGE =         238438.48         STORAGE CHANGE =         -59317.11
       --------------                             --------------
         LAND SURFACE =         347350.76           LAND SURFACE =         -17502.06
            SOIL ZONE =        1187013.99              SOIL ZONE =         -23041.62
     UNSATURATED ZONE =        -623337.44       UNSATURATED ZONE =         -15749.15
       SATURATED ZONE =        -672588.82         SATURATED ZONE =          -3024.27

 OVERALL BUDGET ERROR =          -7078.81           BUDGET ERROR =             -1.07


  PERCENT DISCREPANCY =             -0.04    PERCENT DISCREPANCY =             -0.00



1
 SUMMARY VOLUMETRIC BUDGET FOR GSFLOW 
 DATE: 05 12 1981              CUMULATIVE TIME STEP:     224
 MODFLOW STRESS PERIOD      2     CURRENT TIME STEP:     224     ITERATIONS:      18

 -----------------------------------------------------------------------------------

   CUMULATIVE VOLUMES               L**3   RATES FOR THIS TIME STEP           L**3/T
   ------------------                      ------------------------

                                     IN                                         IN
                                     --                                         --
        PRECIPITATION =        1.6515D+07          PRECIPITATION =                  
           STREAMFLOW =                               STREAMFLOW =                  
     GW BOUNDARY FLOW =                         GW BOUNDARY FLOW =                  


                                    OUT                                        OUT
                                    ---                                        ---
   EVAPOTRANSPIRATION =        1.0809D+07     EVAPOTRANSPIRATION =          90794.75
           STREAMFLOW =        5895970.01             STREAMFLOW =          10476.88
     GW BOUNDARY FLOW =         145811.67       GW BOUNDARY FLOW =            648.22

   INFLOWS - OUTFLOWS =        -335299.12     INFLOWS - OUTFLOWS =        -101919.84
             --------                                   --------

 TOTAL STORAGE CHANGE =        -328216.86         STORAGE CHANGE =        -101917.58
       --------------                             --------------
         LAND SURFACE =         198678.97           LAND SURFACE =         -25500.84
            SOIL ZONE =         903440.69              SOIL ZONE =         -57625.98
     UNSATURATED ZONE =        -728111.82       UNSATURATED ZONE =         -13419.29
       SATURATED ZONE =        -702224.71         SATURATED ZONE =          -5371.46

 OVERALL BUDGET ERROR =          -7082.25           BUDGET ERROR =             -2.26


  PERCENT DISCREPANCY =             -0.04    PERCENT DISCREPANCY =             -0.00



1
 SUMMARY VOLUMETRIC BUDGET FOR GSFLOW 
 DATE: 05 19 1981              CUMULATIVE TIME STEP:     231
 MODFLOW STRESS PERIOD      2     CURRENT TIME STEP:     231     ITERATIONS:      17

 -----------------------------------------------------------------------------------

   CUMULATIVE VOLUMES               L**3   RATES FOR THIS TIME STEP           L**3/T
   ------------------                      ------------------------

                                     IN                                         IN
                                     --                                         --
        PRECIPITATION =        1.7837D+07          PRECIPITATION =         169045.43
           STREAMFLOW =                               STREAMFLOW =                  
     GW BOUNDARY FLOW =                         GW BOUNDARY FLOW =                  


                                    OUT                                        OUT
                                    ---                                        ---
   EVAPOTRANSPIRATION =        1.1152D+07     EVAPOTRANSPIRATION =          32129.65
           STREAMFLOW =        6026994.67             STREAMFLOW =          27330.81
     GW BOUNDARY FLOW =         150351.18       GW BOUNDARY FLOW =            649.57

   INFLOWS - OUTFLOWS =         507427.47     INFLOWS - OUTFLOWS =         108935.39
             --------                                   --------

 TOTAL STORAGE CHANGE =         514512.04         STORAGE CHANGE =         108933.53
       --------------                             --------------
         LAND SURFACE =         167097.84           LAND SURFACE =           4534.24
            SOIL ZONE =        1884125.18              SOIL ZONE =         110167.15
     UNSATURATED ZONE =        -795562.90       UNSATURATED ZONE =           -525.44
       SATURATED ZONE =        -741148.09         SATURATED ZONE =          -5242.41

 OVERALL BUDGET ERROR =          -7084.57           BUDGET ERROR =              1.86


  PERCENT DISCREPANCY =             -0.04    PERCENT DISCREPANCY =              0.00



1
 SUMMARY VOLUMETRIC BUDGET FOR GSFLOW 
 DATE: 05 26 1981              CUMULATIVE TIME STEP:     238
 MODFLOW STRESS PERIOD      2     CURRENT TIME STEP:     238     ITERATIONS:      14

 -----------------------------------------------------------------------------------

   CUMULATIVE VOLUMES               L**3   RATES FOR THIS TIME STEP           L**3/T
   ------------------                      ------------------------

                                     IN                                         IN
                                     --                                         --
        PRECIPITATION =        1.8252D+07          PRECIPITATION =         284303.67
           STREAMFLOW =                               STREAMFLOW =                  
     GW BOUNDARY FLOW =                         GW BOUNDARY FLOW =                  


                                    OUT                                        OUT
                                    ---                                        ---
   EVAPOTRANSPIRATION =        1.1981D+07     EVAPOTRANSPIRATION =         133987.99
           STREAMFLOW =        6140417.33             STREAMFLOW =          19479.14
     GW BOUNDARY FLOW =         154892.64       GW BOUNDARY FLOW =            648.54

   INFLOWS - OUTFLOWS =         -23994.37     INFLOWS - OUTFLOWS =         130188.01
             --------                                   --------

 TOTAL STORAGE CHANGE =         -16902.73         STORAGE CHANGE =         130197.12
       --------------                             --------------
         LAND SURFACE =          96880.50           LAND SURFACE =          -7049.94
            SOIL ZONE =        1526851.50              SOIL ZONE =         154554.45
     UNSATURATED ZONE =        -852194.04       UNSATURATED ZONE =         -10636.97
       SATURATED ZONE =        -788440.69         SATURATED ZONE =          -6670.42

 OVERALL BUDGET ERROR =          -7091.64           BUDGET ERROR =             -9.11


  PERCENT DISCREPANCY =             -0.04    PERCENT DISCREPANCY =             -0.00



1
 SUMMARY VOLUMETRIC BUDGET FOR GSFLOW 
 DATE: 06 02 1981              CUMULATIVE TIME STEP:     245
 MODFLOW STRESS PERIOD      2     CURRENT TIME STEP:     245     ITERATIONS:      14

 -----------------------------------------------------------------------------------

   CUMULATIVE VOLUMES               L**3   RATES FOR THIS TIME STEP           L**3/T
   ------------------                      ------------------------

                                     IN                                         IN
                                     --                                         --
        PRECIPITATION =        1.8318D+07          PRECIPITATION =          50869.96
           STREAMFLOW =                               STREAMFLOW =                  
     GW BOUNDARY FLOW =                         GW BOUNDARY FLOW =                  


                                    OUT                                        OUT
                                    ---                                        ---
   EVAPOTRANSPIRATION =        1.2776D+07     EVAPOTRANSPIRATION =          68974.07
           STREAMFLOW =        6211151.24             STREAMFLOW =           7782.35
     GW BOUNDARY FLOW =         159427.97       GW BOUNDARY FLOW =            647.45

   INFLOWS - OUTFLOWS =        -828703.86     INFLOWS - OUTFLOWS =         -26533.90
             --------                                   --------

 TOTAL STORAGE CHANGE =        -821608.13         STORAGE CHANGE =         -26537.48
       --------------                             --------------
         LAND SURFACE =          61812.20           LAND SURFACE =          30830.75
            SOIL ZONE =         901587.51              SOIL ZONE =         -35337.22
     UNSATURATED ZONE =        -939533.54       UNSATURATED ZONE =         -13580.68
       SATURATED ZONE =        -845474.31         SATURATED ZONE =          -8450.33

 OVERALL BUDGET ERROR =          -7095.73           BUDGET ERROR =              3.58


  PERCENT DISCREPANCY =             -0.04    PERCENT DISCREPANCY =              0.00



1
 SUMMARY VOLUMETRIC BUDGET FOR GSFLOW 
 DATE: 06 09 1981              CUMULATIVE TIME STEP:     252
 MODFLOW STRESS PERIOD      2     CURRENT TIME STEP:     252     ITERATIONS:      13

 -----------------------------------------------------------------------------------

   CUMULATIVE VOLUMES               L**3   RATES FOR THIS TIME STEP           L**3/T
   ------------------                      ------------------------

                                     IN                                         IN
                                     --                                         --
        PRECIPITATION =        1.8318D+07          PRECIPITATION =                  
           STREAMFLOW =                               STREAMFLOW =                  
     GW BOUNDARY FLOW =                         GW BOUNDARY FLOW =                  


                                    OUT                                        OUT
                                    ---                                        ---
   EVAPOTRANSPIRATION =        1.3269D+07     EVAPOTRANSPIRATION =          51443.30
           STREAMFLOW =        6258970.55             STREAMFLOW =           6425.21
     GW BOUNDARY FLOW =         163957.91       GW BOUNDARY FLOW =            646.96

   INFLOWS - OUTFLOWS =       -1373949.65     INFLOWS - OUTFLOWS =         -58515.48
             --------                                   --------

 TOTAL STORAGE CHANGE =       -1366820.03         STORAGE CHANGE =         -58514.51
       --------------                             --------------
         LAND SURFACE =           8252.08           LAND SURFACE =          -1595.17
            SOIL ZONE =         565110.47              SOIL ZONE =         -34710.64
     UNSATURATED ZONE =       -1032935.17       UNSATURATED ZONE =         -13194.98
       SATURATED ZONE =        -907247.41         SATURATED ZONE =          -9013.72

 OVERALL BUDGET ERROR =          -7129.62           BUDGET ERROR =             -0.97


  PERCENT DISCREPANCY =             -0.04    PERCENT DISCREPANCY =             -0.00



1
 SUMMARY VOLUMETRIC BUDGET FOR GSFLOW 
 DATE: 06 16 1981              CUMULATIVE TIME STEP:     259
 MODFLOW STRESS PERIOD      2     CURRENT TIME STEP:     259     ITERATIONS:      17

 -----------------------------------------------------------------------------------

   CUMULATIVE VOLUMES               L**3   RATES FOR THIS TIME STEP           L**3/T
   ------------------                      ------------------------

                                     IN                                         IN
                                     --                                         --
        PRECIPITATION =        1.8318D+07          PRECIPITATION =                  
           STREAMFLOW =                               STREAMFLOW =                  
     GW BOUNDARY FLOW =                         GW BOUNDARY FLOW =                  


                                    OUT                                        OUT
                                    ---                                        ---
   EVAPOTRANSPIRATION =        1.3461D+07     EVAPOTRANSPIRATION =          45201.76
           STREAMFLOW =        6302652.16             STREAMFLOW =           6169.97
     GW BOUNDARY FLOW =         168485.72       GW BOUNDARY FLOW =            646.75

   INFLOWS - OUTFLOWS =       -1613453.85     INFLOWS - OUTFLOWS =         -52018.47
             --------                                   --------

 TOTAL STORAGE CHANGE =       -1606300.68         STORAGE CHANGE =         -52019.04
       --------------                             --------------
         LAND SURFACE =           3425.60           LAND SURFACE =           -943.52
            SOIL ZONE =         484622.14              SOIL ZONE =         -29185.62
     UNSATURATED ZONE =       -1122913.68       UNSATURATED ZONE =         -12613.03
       SATURATED ZONE =        -971434.74         SATURATED ZONE =          -9276.87

 OVERALL BUDGET ERROR =          -7153.17           BUDGET ERROR =              0.57


  PERCENT DISCREPANCY =             -0.04    PERCENT DISCREPANCY =              0.00



1
 SUMMARY VOLUMETRIC BUDGET FOR GSFLOW 
 DATE: 06 23 1981              CUMULATIVE TIME STEP:     266
 MODFLOW STRESS PERIOD      2     CURRENT TIME STEP:     266     ITERATIONS:      14

 -----------------------------------------------------------------------------------

   CUMULATIVE VOLUMES               L**3   RATES FOR THIS TIME STEP           L**3/T
   ------------------                      ------------------------

                                     IN                                         IN
                                     --                                         --
        PRECIPITATION =        1.8318D+07          PRECIPITATION =                  
           STREAMFLOW =                               STREAMFLOW =                  
     GW BOUNDARY FLOW =                         GW BOUNDARY FLOW =                  


                                    OUT                                        OUT
                                    ---                                        ---
   EVAPOTRANSPIRATION =        1.3758D+07     EVAPOTRANSPIRATION =          34785.78
           STREAMFLOW =        6344785.52             STREAMFLOW =           5940.94
     GW BOUNDARY FLOW =         173012.23       GW BOUNDARY FLOW =            646.57

   INFLOWS - OUTFLOWS =       -1957920.76     INFLOWS - OUTFLOWS =         -41373.29
             --------                                   --------

 TOTAL STORAGE CHANGE =       -1950738.56         STORAGE CHANGE =         -41362.15
       --------------                             --------------
         LAND SURFACE =                             LAND SURFACE =                  
            SOIL ZONE =         295633.45              SOIL ZONE =         -19770.76
     UNSATURATED ZONE =       -1208409.89       UNSATURATED ZONE =         -11795.56
       SATURATED ZONE =       -1037962.13         SATURATED ZONE =          -9795.83

 OVERALL BUDGET ERROR =          -7182.20           BUDGET ERROR =            -11.14


  PERCENT DISCREPANCY =             -0.04    PERCENT DISCREPANCY =             -0.03



1
 SUMMARY VOLUMETRIC BUDGET FOR GSFLOW 
 DATE: 06 30 1981              CUMULATIVE TIME STEP:     273
 MODFLOW STRESS PERIOD      2     CURRENT TIME STEP:     273     ITERATIONS:       9

 -----------------------------------------------------------------------------------

   CUMULATIVE VOLUMES               L**3   RATES FOR THIS TIME STEP           L**3/T
   ------------------                      ------------------------

                                     IN                                         IN
[...]
   ------------------                      ------------------------

                                     IN                                         IN
                                     --                                         --
        PRECIPITATION =        4.6511D+08          PRECIPITATION =                  
           STREAMFLOW =                               STREAMFLOW =                  
     GW BOUNDARY FLOW =                         GW BOUNDARY FLOW =                  


                                    OUT                                        OUT
                                    ---                                        ---
   EVAPOTRANSPIRATION =        2.8410D+08     EVAPOTRANSPIRATION =          30463.31
           STREAMFLOW =        1.8493D+08             STREAMFLOW =           6864.45
     GW BOUNDARY FLOW =        3740912.81       GW BOUNDARY FLOW =            650.46

   INFLOWS - OUTFLOWS =       -7661457.15     INFLOWS - OUTFLOWS =         -37978.22
             --------                                   --------

 TOTAL STORAGE CHANGE =       -7560388.39         STORAGE CHANGE =         -38005.79
       --------------                             --------------
         LAND SURFACE =          55405.90           LAND SURFACE =          -3487.93
            SOIL ZONE =         183197.83              SOIL ZONE =         -13175.96
     UNSATURATED ZONE =        4927423.74       UNSATURATED ZONE =         -26930.52
       SATURATED ZONE =       -1.2726D+07         SATURATED ZONE =           5588.61

 OVERALL BUDGET ERROR =        -101068.76           BUDGET ERROR =             27.57


  PERCENT DISCREPANCY =             -0.02    PERCENT DISCREPANCY =              0.07



1
 SUMMARY VOLUMETRIC BUDGET FOR GSFLOW 
 DATE: 08 06 1996              CUMULATIVE TIME STEP:    5789
 MODFLOW STRESS PERIOD      2     CURRENT TIME STEP:    5789     ITERATIONS:      15

 -----------------------------------------------------------------------------------

   CUMULATIVE VOLUMES               L**3   RATES FOR THIS TIME STEP           L**3/T
   ------------------                      ------------------------

                                     IN                                         IN
                                     --                                         --
        PRECIPITATION =        4.6511D+08          PRECIPITATION =                  
           STREAMFLOW =                               STREAMFLOW =                  
     GW BOUNDARY FLOW =                         GW BOUNDARY FLOW =                  


                                    OUT                                        OUT
                                    ---                                        ---
   EVAPOTRANSPIRATION =        2.8425D+08     EVAPOTRANSPIRATION =          21522.24
           STREAMFLOW =        1.8498D+08             STREAMFLOW =           6656.10
     GW BOUNDARY FLOW =        3745465.82       GW BOUNDARY FLOW =            650.38

   INFLOWS - OUTFLOWS =       -7859656.71     INFLOWS - OUTFLOWS =         -28828.72
             --------                                   --------

 TOTAL STORAGE CHANGE =       -7758694.23         STORAGE CHANGE =         -28839.70
       --------------                             --------------
         LAND SURFACE =          37062.04           LAND SURFACE =          -2253.66
            SOIL ZONE =         151300.15              SOIL ZONE =          -5569.10
     UNSATURATED ZONE =        4742327.89       UNSATURATED ZONE =         -26040.27
       SATURATED ZONE =       -1.2689D+07         SATURATED ZONE =           5023.33

 OVERALL BUDGET ERROR =        -100962.48           BUDGET ERROR =             10.98


  PERCENT DISCREPANCY =             -0.02    PERCENT DISCREPANCY =              0.04



1
 SUMMARY VOLUMETRIC BUDGET FOR GSFLOW 
 DATE: 08 13 1996              CUMULATIVE TIME STEP:    5796
 MODFLOW STRESS PERIOD      2     CURRENT TIME STEP:    5796     ITERATIONS:      14

 -----------------------------------------------------------------------------------

   CUMULATIVE VOLUMES               L**3   RATES FOR THIS TIME STEP           L**3/T
   ------------------                      ------------------------

                                     IN                                         IN
                                     --                                         --
        PRECIPITATION =        4.6531D+08          PRECIPITATION =          54454.08
           STREAMFLOW =                               STREAMFLOW =                  
     GW BOUNDARY FLOW =                         GW BOUNDARY FLOW =                  


                                    OUT                                        OUT
                                    ---                                        ---
   EVAPOTRANSPIRATION =        2.8443D+08     EVAPOTRANSPIRATION =          31777.90
           STREAMFLOW =        1.8502D+08             STREAMFLOW =           7867.44
     GW BOUNDARY FLOW =        3750018.03       GW BOUNDARY FLOW =            650.33

   INFLOWS - OUTFLOWS =       -7886782.49     INFLOWS - OUTFLOWS =          14158.41
             --------                                   --------

 TOTAL STORAGE CHANGE =       -7785907.86         STORAGE CHANGE =          14138.95
       --------------                             --------------
         LAND SURFACE =          53162.52           LAND SURFACE =          -2312.39
            SOIL ZONE =         253630.72              SOIL ZONE =          37078.10
     UNSATURATED ZONE =        4566454.79       UNSATURATED ZONE =         -24485.44
       SATURATED ZONE =       -1.2659D+07         SATURATED ZONE =           3858.67

 OVERALL BUDGET ERROR =        -100874.63           BUDGET ERROR =             19.45


  PERCENT DISCREPANCY =             -0.02    PERCENT DISCREPANCY =              0.04



1
 SUMMARY VOLUMETRIC BUDGET FOR GSFLOW 
 DATE: 08 20 1996              CUMULATIVE TIME STEP:    5803
 MODFLOW STRESS PERIOD      2     CURRENT TIME STEP:    5803     ITERATIONS:      14

 -----------------------------------------------------------------------------------

   CUMULATIVE VOLUMES               L**3   RATES FOR THIS TIME STEP           L**3/T
   ------------------                      ------------------------

                                     IN                                         IN
                                     --                                         --
        PRECIPITATION =        4.6531D+08          PRECIPITATION =                  
           STREAMFLOW =                               STREAMFLOW =                  
     GW BOUNDARY FLOW =                         GW BOUNDARY FLOW =                  


                                    OUT                                        OUT
                                    ---                                        ---
   EVAPOTRANSPIRATION =        2.8462D+08     EVAPOTRANSPIRATION =          17559.23
           STREAMFLOW =        1.8507D+08             STREAMFLOW =           6458.30
     GW BOUNDARY FLOW =        3754568.72       GW BOUNDARY FLOW =            649.92

   INFLOWS - OUTFLOWS =       -8135885.01     INFLOWS - OUTFLOWS =         -24667.46
             --------                                   --------

 TOTAL STORAGE CHANGE =       -8035130.74         STORAGE CHANGE =         -24683.11
       --------------                             --------------
         LAND SURFACE =           6921.38           LAND SURFACE =          -1297.31
            SOIL ZONE =         194823.27              SOIL ZONE =          -2900.07
     UNSATURATED ZONE =        4399551.70       UNSATURATED ZONE =         -23312.42
       SATURATED ZONE =       -1.2636D+07         SATURATED ZONE =           2826.70

 OVERALL BUDGET ERROR =        -100754.26           BUDGET ERROR =             15.65


  PERCENT DISCREPANCY =             -0.02    PERCENT DISCREPANCY =              0.06



1
 SUMMARY VOLUMETRIC BUDGET FOR GSFLOW 
 DATE: 08 27 1996              CUMULATIVE TIME STEP:    5810
 MODFLOW STRESS PERIOD      2     CURRENT TIME STEP:    5810     ITERATIONS:      12

 -----------------------------------------------------------------------------------

   CUMULATIVE VOLUMES               L**3   RATES FOR THIS TIME STEP           L**3/T
   ------------------                      ------------------------

                                     IN                                         IN
                                     --                                         --
        PRECIPITATION =        4.6531D+08          PRECIPITATION =                  
           STREAMFLOW =                               STREAMFLOW =                  
     GW BOUNDARY FLOW =                         GW BOUNDARY FLOW =                  


                                    OUT                                        OUT
                                    ---                                        ---
   EVAPOTRANSPIRATION =        2.8476D+08     EVAPOTRANSPIRATION =          15675.30
           STREAMFLOW =        1.8512D+08             STREAMFLOW =           6297.19
     GW BOUNDARY FLOW =        3759116.67       GW BOUNDARY FLOW =            649.54

   INFLOWS - OUTFLOWS =       -8325164.23     INFLOWS - OUTFLOWS =         -22622.04
             --------                                   --------

 TOTAL STORAGE CHANGE =       -8224548.26         STORAGE CHANGE =         -22648.45
       --------------                             --------------
         LAND SURFACE =           1243.96           LAND SURFACE =           -271.65
            SOIL ZONE =         153506.58              SOIL ZONE =          -2128.37
     UNSATURATED ZONE =        4240266.65       UNSATURATED ZONE =         -22214.33
       SATURATED ZONE =       -1.2620D+07         SATURATED ZONE =           1965.91

 OVERALL BUDGET ERROR =        -100615.97           BUDGET ERROR =             26.42


  PERCENT DISCREPANCY =             -0.02    PERCENT DISCREPANCY =              0.12



1
 SUMMARY VOLUMETRIC BUDGET FOR GSFLOW 
 DATE: 09 03 1996              CUMULATIVE TIME STEP:    5817
 MODFLOW STRESS PERIOD      2     CURRENT TIME STEP:    5817     ITERATIONS:      12

 -----------------------------------------------------------------------------------

   CUMULATIVE VOLUMES               L**3   RATES FOR THIS TIME STEP           L**3/T
   ------------------                      ------------------------

                                     IN                                         IN
                                     --                                         --
        PRECIPITATION =        4.6531D+08          PRECIPITATION =                  
           STREAMFLOW =                               STREAMFLOW =                  
     GW BOUNDARY FLOW =                         GW BOUNDARY FLOW =                  


                                    OUT                                        OUT
                                    ---                                        ---
   EVAPOTRANSPIRATION =        2.8487D+08     EVAPOTRANSPIRATION =          12598.93
           STREAMFLOW =        1.8516D+08             STREAMFLOW =           6192.51
     GW BOUNDARY FLOW =        3763661.87       GW BOUNDARY FLOW =            649.14

   INFLOWS - OUTFLOWS =       -8480042.28     INFLOWS - OUTFLOWS =         -19440.58
             --------                                   --------

 TOTAL STORAGE CHANGE =       -8379588.55         STORAGE CHANGE =         -19470.74
       --------------                             --------------
         LAND SURFACE =            583.76           LAND SURFACE =            -75.05
            SOIL ZONE =         139911.15              SOIL ZONE =            625.99
     UNSATURATED ZONE =        4085674.94       UNSATURATED ZONE =         -22039.38
       SATURATED ZONE =       -1.2606D+07         SATURATED ZONE =           2017.70

 OVERALL BUDGET ERROR =        -100453.74           BUDGET ERROR =             30.16


  PERCENT DISCREPANCY =             -0.02    PERCENT DISCREPANCY =              0.16



1
 SUMMARY VOLUMETRIC BUDGET FOR GSFLOW 
 DATE: 09 10 1996              CUMULATIVE TIME STEP:    5824
 MODFLOW STRESS PERIOD      2     CURRENT TIME STEP:    5824     ITERATIONS:      12

 -----------------------------------------------------------------------------------

   CUMULATIVE VOLUMES               L**3   RATES FOR THIS TIME STEP           L**3/T
   ------------------                      ------------------------

                                     IN                                         IN
                                     --                                         --
        PRECIPITATION =        4.6531D+08          PRECIPITATION =                  
           STREAMFLOW =                               STREAMFLOW =                  
     GW BOUNDARY FLOW =                         GW BOUNDARY FLOW =                  


                                    OUT                                        OUT
                                    ---                                        ---
   EVAPOTRANSPIRATION =        2.8496D+08     EVAPOTRANSPIRATION =          13596.21
           STREAMFLOW =        1.8520D+08             STREAMFLOW =           6100.25
     GW BOUNDARY FLOW =        3768204.31       GW BOUNDARY FLOW =            648.75

   INFLOWS - OUTFLOWS =       -8612723.97     INFLOWS - OUTFLOWS =         -20345.21
             --------                                   --------

 TOTAL STORAGE CHANGE =       -8512471.25         STORAGE CHANGE =         -20371.31
       --------------                             --------------
         LAND SURFACE =            141.35           LAND SURFACE =            -69.28
            SOIL ZONE =         146737.25              SOIL ZONE =           -502.30
     UNSATURATED ZONE =        3936288.05       UNSATURATED ZONE =         -20889.55
       SATURATED ZONE =       -1.2596D+07         SATURATED ZONE =           1089.83

 OVERALL BUDGET ERROR =        -100252.71           BUDGET ERROR =             26.10


  PERCENT DISCREPANCY =             -0.02    PERCENT DISCREPANCY =              0.13



1
 SUMMARY VOLUMETRIC BUDGET FOR GSFLOW 
 DATE: 09 17 1996              CUMULATIVE TIME STEP:    5831
 MODFLOW STRESS PERIOD      2     CURRENT TIME STEP:    5831     ITERATIONS:      12

 -----------------------------------------------------------------------------------

   CUMULATIVE VOLUMES               L**3   RATES FOR THIS TIME STEP           L**3/T
   ------------------                      ------------------------

                                     IN                                         IN
                                     --                                         --
        PRECIPITATION =        4.6637D+08          PRECIPITATION =                  
           STREAMFLOW =                               STREAMFLOW =                  
     GW BOUNDARY FLOW =                         GW BOUNDARY FLOW =                  


                                    OUT                                        OUT
                                    ---                                        ---
   EVAPOTRANSPIRATION =        2.8513D+08     EVAPOTRANSPIRATION =          58054.02
           STREAMFLOW =        1.8527D+08             STREAMFLOW =          10270.47
     GW BOUNDARY FLOW =        3772745.93       GW BOUNDARY FLOW =            649.14

   INFLOWS - OUTFLOWS =       -7807179.67     INFLOWS - OUTFLOWS =         -68973.63
             --------                                   --------

 TOTAL STORAGE CHANGE =       -7707208.79         STORAGE CHANGE =         -68995.98
       --------------                             --------------
         LAND SURFACE =           3348.24           LAND SURFACE =         -35098.95
            SOIL ZONE =        1084534.32              SOIL ZONE =         -14315.09
     UNSATURATED ZONE =        3794598.70       UNSATURATED ZONE =         -19849.87
       SATURATED ZONE =       -1.2590D+07         SATURATED ZONE =            267.92

 OVERALL BUDGET ERROR =         -99970.89           BUDGET ERROR =             22.35


  PERCENT DISCREPANCY =             -0.02    PERCENT DISCREPANCY =              0.03



1
 SUMMARY VOLUMETRIC BUDGET FOR GSFLOW 
 DATE: 09 24 1996              CUMULATIVE TIME STEP:    5838
 MODFLOW STRESS PERIOD      2     CURRENT TIME STEP:    5838     ITERATIONS:      16

 -----------------------------------------------------------------------------------

   CUMULATIVE VOLUMES               L**3   RATES FOR THIS TIME STEP           L**3/T
   ------------------                      ------------------------

                                     IN                                         IN
                                     --                                         --
        PRECIPITATION =        4.6637D+08          PRECIPITATION =                  
           STREAMFLOW =                               STREAMFLOW =                  
     GW BOUNDARY FLOW =                         GW BOUNDARY FLOW =                  


                                    OUT                                        OUT
                                    ---                                        ---
   EVAPOTRANSPIRATION =        2.8561D+08     EVAPOTRANSPIRATION =          54348.97
           STREAMFLOW =        1.8532D+08             STREAMFLOW =           6704.45
     GW BOUNDARY FLOW =        3777285.95       GW BOUNDARY FLOW =            648.24

   INFLOWS - OUTFLOWS =       -8338468.06     INFLOWS - OUTFLOWS =         -61701.66
             --------                                   --------

 TOTAL STORAGE CHANGE =       -8238666.92         STORAGE CHANGE =         -61717.84
       --------------                             --------------
         LAND SURFACE =                             LAND SURFACE =                  
            SOIL ZONE =         692795.88              SOIL ZONE =         -42321.29
     UNSATURATED ZONE =        3658260.14       UNSATURATED ZONE =         -19210.60
       SATURATED ZONE =       -1.2590D+07         SATURATED ZONE =           -185.95

 OVERALL BUDGET ERROR =         -99801.14           BUDGET ERROR =             16.19


  PERCENT DISCREPANCY =             -0.02    PERCENT DISCREPANCY =              0.03



 Number of time steps:   5844;  Number of non-convergence:   0
 MF iterations:         64653;  SZ iterations:           64584
 Average MF iterations: 11.06;  Average SZ iterations:   11.05
 Maximum MF iterations:    34;  Maximum SZ iterations:      25

mxsziter reached: 15

MF iteration distribution:      0    0    0   37  352  434  809  545  371  428
                              477  403  343  406  317  178  109  125  121  167
                              108   70   22    5    2    1    2    2    3    3
                                0    2    1    1    0    0    0    0    0    0
                                0    0    0    0    0    0    0    0    0    0
                                0    0    0    0    0    0    0    0    0    0
                                0    0    0    0    0    0    0    0    0    0
                                0    0    0    0    0    0    0    0    0    0

SZ computation distribution:    0    0    0   37  352  434  809  545  371  428
                              477  403  343  406  317  178  109  125  121  167
                              108   70   22    5   17    0    0    0    0    0
                                0    0    0    0    0    0    0    0    0    0
                                0    0    0    0    0    0    0    0    0    0
                                0    0    0    0    0    0    0    0    0    0
                                0    0    0    0    0    0    0    0    0    0
                                0    0    0    0    0    0    0    0    0    0

