1
 SUMMARY VOLUMETRIC BUDGET FOR GSFLOW 
 DATE: 10 07 1980              CUMULATIVE TIME STEP:       7
 MODFLOW STRESS PERIOD      2     CURRENT TIME STEP:       7     ITERATIONS:       6

 -----------------------------------------------------------------------------------

   CUMULATIVE VOLUMES               L**3   RATES FOR THIS TIME STEP           L**3/T
   ------------------                      ------------------------

                                     IN                                         IN
                                     --                                         --
        PRECIPITATION =                            PRECIPITATION =                  
           STREAMFLOW =                               STREAMFLOW =                  
     GW BOUNDARY FLOW =                         GW BOUNDARY FLOW =                  


                                    OUT                                        OUT
                                    ---                                        ---
   EVAPOTRANSPIRATION =          63501.87     EVAPOTRANSPIRATION =           9679.38
           STREAMFLOW =          42957.63             STREAMFLOW =           6065.77
     GW BOUNDARY FLOW =           4541.44       GW BOUNDARY FLOW =            648.70

   INFLOWS - OUTFLOWS =        -111000.94     INFLOWS - OUTFLOWS =         -16393.85
             --------                                   --------

 TOTAL STORAGE CHANGE =        -110545.15         STORAGE CHANGE =         -16325.53
       --------------                             --------------
         LAND SURFACE =                             LAND SURFACE =                  
            SOIL ZONE =          47015.18              SOIL ZONE =           6017.04
     UNSATURATED ZONE =        -144777.37       UNSATURATED ZONE =         -20360.11
       SATURATED ZONE =         -12782.96         SATURATED ZONE =          -1982.46

 OVERALL BUDGET ERROR =           -455.78           BUDGET ERROR =            -68.32


  PERCENT DISCREPANCY =             -0.41    PERCENT DISCREPANCY =             -0.42



1
 SUMMARY VOLUMETRIC BUDGET FOR GSFLOW 
 DATE: 10 14 1980              CUMULATIVE TIME STEP:      14
 MODFLOW STRESS PERIOD      2     CURRENT TIME STEP:      14     ITERATIONS:       6

 -----------------------------------------------------------------------------------

   CUMULATIVE VOLUMES               L**3   RATES FOR THIS TIME STEP           L**3/T
   ------------------                      ------------------------

                                     IN                                         IN
                                     --                                         --
        PRECIPITATION =         650779.83          PRECIPITATION =         164754.40
           STREAMFLOW =                               STREAMFLOW =                  
     GW BOUNDARY FLOW =                         GW BOUNDARY FLOW =                  


                                    OUT                                        OUT
                                    ---                                        ---
   EVAPOTRANSPIRATION =         147518.25     EVAPOTRANSPIRATION =           7886.47
           STREAMFLOW =          92677.70             STREAMFLOW =           7494.65
     GW BOUNDARY FLOW =           9082.78       GW BOUNDARY FLOW =            648.89

   INFLOWS - OUTFLOWS =         401501.10     INFLOWS - OUTFLOWS =         148724.38
             --------                                   --------

 TOTAL STORAGE CHANGE =         402471.62         STORAGE CHANGE =         148798.38
       --------------                             --------------
         LAND SURFACE =         277689.24           LAND SURFACE =         136623.45
            SOIL ZONE =         436909.22              SOIL ZONE =          34192.78
     UNSATURATED ZONE =        -284452.37       UNSATURATED ZONE =         -19623.49
       SATURATED ZONE =         -27674.48         SATURATED ZONE =          -2394.36

 OVERALL BUDGET ERROR =           -970.52           BUDGET ERROR =            -73.99


  PERCENT DISCREPANCY =             -0.15    PERCENT DISCREPANCY =             -0.04



1
 SUMMARY VOLUMETRIC BUDGET FOR GSFLOW 
 DATE: 10 21 1980              CUMULATIVE TIME STEP:      21
 MODFLOW STRESS PERIOD      2     CURRENT TIME STEP:      21     ITERATIONS:       6

 -----------------------------------------------------------------------------------

   CUMULATIVE VOLUMES               L**3   RATES FOR THIS TIME STEP           L**3/T
   ------------------                      ------------------------

                                     IN                                         IN
                                     --                                         --
        PRECIPITATION =         733157.03          PRECIPITATION =                  
           STREAMFLOW =                               STREAMFLOW =                  
     GW BOUNDARY FLOW =                         GW BOUNDARY FLOW =                  


                                    OUT                                        OUT
                                    ---                                        ---
   EVAPOTRANSPIRATION =         373106.44     EVAPOTRANSPIRATION =          36446.75
           STREAMFLOW =         144889.98             STREAMFLOW =           7105.83
     GW BOUNDARY FLOW =          13624.56       GW BOUNDARY FLOW =            648.77

   INFLOWS - OUTFLOWS =         201536.05     INFLOWS - OUTFLOWS =         -44201.35
             --------                                   --------

 TOTAL STORAGE CHANGE =         203016.16         STORAGE CHANGE =         -44120.62
       --------------                             --------------
         LAND SURFACE =           2250.88           LAND SURFACE =          -3153.72
            SOIL ZONE =         665732.85              SOIL ZONE =         -19175.28
     UNSATURATED ZONE =        -418622.05       UNSATURATED ZONE =         -18801.05
       SATURATED ZONE =         -46345.52         SATURATED ZONE =          -2990.56

 OVERALL BUDGET ERROR =          -1480.11           BUDGET ERROR =            -80.74


  PERCENT DISCREPANCY =             -0.20    PERCENT DISCREPANCY =             -0.18



1
 SUMMARY VOLUMETRIC BUDGET FOR GSFLOW 
 DATE: 10 28 1980              CUMULATIVE TIME STEP:      28
 MODFLOW STRESS PERIOD      2     CURRENT TIME STEP:      28     ITERATIONS:       6

 -----------------------------------------------------------------------------------

   CUMULATIVE VOLUMES               L**3   RATES FOR THIS TIME STEP           L**3/T
   ------------------                      ------------------------

                                     IN                                         IN
                                     --                                         --
        PRECIPITATION =        1070903.53          PRECIPITATION =                  
           STREAMFLOW =                               STREAMFLOW =                  
     GW BOUNDARY FLOW =                         GW BOUNDARY FLOW =                  


                                    OUT                                        OUT
                                    ---                                        ---
   EVAPOTRANSPIRATION =         550293.56     EVAPOTRANSPIRATION =          23594.60
           STREAMFLOW =         199833.50             STREAMFLOW =           7989.29
     GW BOUNDARY FLOW =          18165.91       GW BOUNDARY FLOW =            648.81

   INFLOWS - OUTFLOWS =         302610.55     INFLOWS - OUTFLOWS =         -32232.70
             --------                                   --------

 TOTAL STORAGE CHANGE =         304662.03         STORAGE CHANGE =         -32146.02
       --------------                             --------------
         LAND SURFACE =          24619.51           LAND SURFACE =         -30948.99
            SOIL ZONE =         896185.44              SOIL ZONE =          20270.79
     UNSATURATED ZONE =        -547225.20       UNSATURATED ZONE =         -17994.12
       SATURATED ZONE =         -68917.73         SATURATED ZONE =          -3473.70

 OVERALL BUDGET ERROR =          -2051.48           BUDGET ERROR =            -86.68


  PERCENT DISCREPANCY =             -0.19    PERCENT DISCREPANCY =             -0.27



1
 SUMMARY VOLUMETRIC BUDGET FOR GSFLOW 
 DATE: 11 04 1980              CUMULATIVE TIME STEP:      35
 MODFLOW STRESS PERIOD      2     CURRENT TIME STEP:      35     ITERATIONS:       8

 -----------------------------------------------------------------------------------

   CUMULATIVE VOLUMES               L**3   RATES FOR THIS TIME STEP           L**3/T
   ------------------                      ------------------------

                                     IN                                         IN
                                     --                                         --
        PRECIPITATION =        1070903.53          PRECIPITATION =                  
           STREAMFLOW =                               STREAMFLOW =                  
     GW BOUNDARY FLOW =                         GW BOUNDARY FLOW =                  


                                    OUT                                        OUT
                                    ---                                        ---
   EVAPOTRANSPIRATION =         825642.58     EVAPOTRANSPIRATION =          34462.44
           STREAMFLOW =         252301.21             STREAMFLOW =           7018.29
     GW BOUNDARY FLOW =          22706.92       GW BOUNDARY FLOW =            648.64

   INFLOWS - OUTFLOWS =         -29747.18     INFLOWS - OUTFLOWS =         -42129.38
             --------                                   --------

 TOTAL STORAGE CHANGE =         -27204.95         STORAGE CHANGE =         -42067.20
       --------------                             --------------
         LAND SURFACE =                             LAND SURFACE =                  
            SOIL ZONE =         739552.00              SOIL ZONE =         -20541.37
     UNSATURATED ZONE =        -670653.09       UNSATURATED ZONE =         -17361.18
       SATURATED ZONE =         -96103.86         SATURATED ZONE =          -4164.65

 OVERALL BUDGET ERROR =          -2542.23           BUDGET ERROR =            -62.18


  PERCENT DISCREPANCY =             -0.23    PERCENT DISCREPANCY =             -0.15



1
 SUMMARY VOLUMETRIC BUDGET FOR GSFLOW 
 DATE: 11 11 1980              CUMULATIVE TIME STEP:      42
 MODFLOW STRESS PERIOD      2     CURRENT TIME STEP:      42     ITERATIONS:       7

 -----------------------------------------------------------------------------------

   CUMULATIVE VOLUMES               L**3   RATES FOR THIS TIME STEP           L**3/T
   ------------------                      ------------------------

                                     IN                                         IN
                                     --                                         --
        PRECIPITATION =        1573762.54          PRECIPITATION =         255182.19
           STREAMFLOW =                               STREAMFLOW =                  
     GW BOUNDARY FLOW =                         GW BOUNDARY FLOW =                  


                                    OUT                                        OUT
                                    ---                                        ---
   EVAPOTRANSPIRATION =        1024610.59     EVAPOTRANSPIRATION =          14645.83
           STREAMFLOW =         308277.46             STREAMFLOW =          10773.74
     GW BOUNDARY FLOW =          27247.64       GW BOUNDARY FLOW =            648.84

   INFLOWS - OUTFLOWS =         213626.85     INFLOWS - OUTFLOWS =         229113.78
             --------                                   --------

 TOTAL STORAGE CHANGE =         216714.60         STORAGE CHANGE =         229178.41
       --------------                             --------------
         LAND SURFACE =          78612.95           LAND SURFACE =          76659.87
            SOIL ZONE =        1053407.52              SOIL ZONE =         173142.29
     UNSATURATED ZONE =        -789255.30       UNSATURATED ZONE =         -16535.15
       SATURATED ZONE =        -126050.56         SATURATED ZONE =          -4088.60

 OVERALL BUDGET ERROR =          -3087.76           BUDGET ERROR =            -64.63


  PERCENT DISCREPANCY =             -0.20    PERCENT DISCREPANCY =             -0.03



1
 SUMMARY VOLUMETRIC BUDGET FOR GSFLOW 
 DATE: 11 18 1980              CUMULATIVE TIME STEP:      49
 MODFLOW STRESS PERIOD      2     CURRENT TIME STEP:      49     ITERATIONS:       7

 -----------------------------------------------------------------------------------

   CUMULATIVE VOLUMES               L**3   RATES FOR THIS TIME STEP           L**3/T
   ------------------                      ------------------------

                                     IN                                         IN
                                     --                                         --
        PRECIPITATION =        1573762.54          PRECIPITATION =                  
           STREAMFLOW =                               STREAMFLOW =                  
     GW BOUNDARY FLOW =                         GW BOUNDARY FLOW =                  


                                    OUT                                        OUT
                                    ---                                        ---
   EVAPOTRANSPIRATION =        1113101.47     EVAPOTRANSPIRATION =          16687.24
           STREAMFLOW =         371219.28             STREAMFLOW =           9364.82
     GW BOUNDARY FLOW =          31789.52       GW BOUNDARY FLOW =            648.86

   INFLOWS - OUTFLOWS =          57652.27     INFLOWS - OUTFLOWS =         -26700.92
             --------                                   --------

 TOTAL STORAGE CHANGE =          61348.09         STORAGE CHANGE =         -26624.93
       --------------                             --------------
         LAND SURFACE =           8654.86           LAND SURFACE =          -6203.23
            SOIL ZONE =        1114559.66              SOIL ZONE =            419.02
     UNSATURATED ZONE =        -903158.34       UNSATURATED ZONE =         -16016.65
       SATURATED ZONE =        -158708.08         SATURATED ZONE =          -4824.06

 OVERALL BUDGET ERROR =          -3695.82           BUDGET ERROR =            -75.99


  PERCENT DISCREPANCY =             -0.23    PERCENT DISCREPANCY =             -0.29



1
 SUMMARY VOLUMETRIC BUDGET FOR GSFLOW 
 DATE: 11 25 1980              CUMULATIVE TIME STEP:      56
 MODFLOW STRESS PERIOD      2     CURRENT TIME STEP:      56     ITERATIONS:       8

 -----------------------------------------------------------------------------------

   CUMULATIVE VOLUMES               L**3   RATES FOR THIS TIME STEP           L**3/T
   ------------------                      ------------------------

                                     IN                                         IN
                                     --                                         --
        PRECIPITATION =        1648816.13          PRECIPITATION =                  
           STREAMFLOW =                               STREAMFLOW =                  
     GW BOUNDARY FLOW =                         GW BOUNDARY FLOW =                  


                                    OUT                                        OUT
                                    ---                                        ---
   EVAPOTRANSPIRATION =        1185742.16     EVAPOTRANSPIRATION =           8792.25
           STREAMFLOW =         438523.51             STREAMFLOW =           9976.17
     GW BOUNDARY FLOW =          36331.82       GW BOUNDARY FLOW =            648.94

   INFLOWS - OUTFLOWS =         -11781.36     INFLOWS - OUTFLOWS =         -19417.36
             --------                                   --------

 TOTAL STORAGE CHANGE =          -7552.34         STORAGE CHANGE =         -19353.05
       --------------                             --------------
         LAND SURFACE =          55166.83           LAND SURFACE =          -8744.58
            SOIL ZONE =        1144801.89              SOIL ZONE =          10128.16
     UNSATURATED ZONE =       -1012779.74       UNSATURATED ZONE =         -15405.64
       SATURATED ZONE =        -194741.32         SATURATED ZONE =          -5330.99

 OVERALL BUDGET ERROR =          -4229.02           BUDGET ERROR =            -64.31


  PERCENT DISCREPANCY =             -0.25    PERCENT DISCREPANCY =             -0.33



1
 SUMMARY VOLUMETRIC BUDGET FOR GSFLOW 
 DATE: 12 02 1980              CUMULATIVE TIME STEP:      63
 MODFLOW STRESS PERIOD      2     CURRENT TIME STEP:      63     ITERATIONS:       8

 -----------------------------------------------------------------------------------

   CUMULATIVE VOLUMES               L**3   RATES FOR THIS TIME STEP           L**3/T
   ------------------                      ------------------------

                                     IN                                         IN
                                     --                                         --
        PRECIPITATION =        2076621.55          PRECIPITATION =                  
           STREAMFLOW =                               STREAMFLOW =                  
     GW BOUNDARY FLOW =                         GW BOUNDARY FLOW =                  


                                    OUT                                        OUT
                                    ---                                        ---
   EVAPOTRANSPIRATION =        1375203.95     EVAPOTRANSPIRATION =          33951.96
           STREAMFLOW =         523914.97             STREAMFLOW =          15368.17
     GW BOUNDARY FLOW =          40875.80       GW BOUNDARY FLOW =            649.45

   INFLOWS - OUTFLOWS =         136626.83     INFLOWS - OUTFLOWS =         -49969.58
             --------                                   --------

 TOTAL STORAGE CHANGE =         141298.35         STORAGE CHANGE =         -49918.08
       --------------                             --------------
         LAND SURFACE =         152551.10           LAND SURFACE =         -75205.42
            SOIL ZONE =        1333563.50              SOIL ZONE =          42839.07
     UNSATURATED ZONE =       -1114204.23       UNSATURATED ZONE =         -12953.88
       SATURATED ZONE =        -230612.03         SATURATED ZONE =          -4597.84

 OVERALL BUDGET ERROR =          -4671.52           BUDGET ERROR =            -51.50


  PERCENT DISCREPANCY =             -0.22    PERCENT DISCREPANCY =             -0.10



1
 SUMMARY VOLUMETRIC BUDGET FOR GSFLOW 
 DATE: 12 09 1980              CUMULATIVE TIME STEP:      70
 MODFLOW STRESS PERIOD      2     CURRENT TIME STEP:      70     ITERATIONS:       8

 -----------------------------------------------------------------------------------

   CUMULATIVE VOLUMES               L**3   RATES FOR THIS TIME STEP           L**3/T
   ------------------                      ------------------------

                                     IN                                         IN
                                     --                                         --
        PRECIPITATION =        4284363.63          PRECIPITATION =                  
           STREAMFLOW =                               STREAMFLOW =                  
     GW BOUNDARY FLOW =                         GW BOUNDARY FLOW =                  


                                    OUT                                        OUT
                                    ---                                        ---
   EVAPOTRANSPIRATION =        1398622.32     EVAPOTRANSPIRATION =           2942.43
           STREAMFLOW =         624562.67             STREAMFLOW =          14710.50
     GW BOUNDARY FLOW =          45422.80       GW BOUNDARY FLOW =            649.67

   INFLOWS - OUTFLOWS =        2215755.84     INFLOWS - OUTFLOWS =         -18302.60
             --------                                   --------

 TOTAL STORAGE CHANGE =        2220886.76         STORAGE CHANGE =         -18250.99
       --------------                             --------------
         LAND SURFACE =        2335216.87           LAND SURFACE =          -2942.43
            SOIL ZONE =        1367919.71              SOIL ZONE =           4916.72
     UNSATURATED ZONE =       -1212495.90       UNSATURATED ZONE =         -14224.41
       SATURATED ZONE =        -269753.92         SATURATED ZONE =          -6000.87

 OVERALL BUDGET ERROR =          -5130.92           BUDGET ERROR =            -51.61


  PERCENT DISCREPANCY =             -0.12    PERCENT DISCREPANCY =             -0.28



1
 SUMMARY VOLUMETRIC BUDGET FOR GSFLOW 
 DATE: 12 16 1980              CUMULATIVE TIME STEP:      77
 MODFLOW STRESS PERIOD      2     CURRENT TIME STEP:      77     ITERATIONS:       7

 -----------------------------------------------------------------------------------

   CUMULATIVE VOLUMES               L**3   RATES FOR THIS TIME STEP           L**3/T
   ------------------                      ------------------------

                                     IN                                         IN
                                     --                                         --
        PRECIPITATION =        4284363.63          PRECIPITATION =                  
           STREAMFLOW =                               STREAMFLOW =                  
     GW BOUNDARY FLOW =                         GW BOUNDARY FLOW =                  


                                    OUT                                        OUT
                                    ---                                        ---
   EVAPOTRANSPIRATION =        1540616.21     EVAPOTRANSPIRATION =          33883.35
           STREAMFLOW =         746419.76             STREAMFLOW =          25216.13
     GW BOUNDARY FLOW =          49971.61       GW BOUNDARY FLOW =            650.27

   INFLOWS - OUTFLOWS =        1947356.05     INFLOWS - OUTFLOWS =         -59749.75
             --------                                   --------

 TOTAL STORAGE CHANGE =        1952918.47         STORAGE CHANGE =         -59684.32
       --------------                             --------------
         LAND SURFACE =        2023939.67           LAND SURFACE =        -129021.52
            SOIL ZONE =        1541256.06              SOIL ZONE =          82705.68
     UNSATURATED ZONE =       -1302229.62       UNSATURATED ZONE =          -8986.00
       SATURATED ZONE =        -310047.63         SATURATED ZONE =          -4382.49

 OVERALL BUDGET ERROR =          -5562.42           BUDGET ERROR =            -65.43


  PERCENT DISCREPANCY =             -0.13    PERCENT DISCREPANCY =             -0.11



1
 SUMMARY VOLUMETRIC BUDGET FOR GSFLOW 
 DATE: 12 23 1980              CUMULATIVE TIME STEP:      84
 MODFLOW STRESS PERIOD      2     CURRENT TIME STEP:      84     ITERATIONS:       9

 -----------------------------------------------------------------------------------

   CUMULATIVE VOLUMES               L**3   RATES FOR THIS TIME STEP           L**3/T
   ------------------                      ------------------------

                                     IN                                         IN
                                     --                                         --
        PRECIPITATION =        4516757.54          PRECIPITATION =                  
           STREAMFLOW =                               STREAMFLOW =                  
     GW BOUNDARY FLOW =                         GW BOUNDARY FLOW =                  


                                    OUT                                        OUT
                                    ---                                        ---
   EVAPOTRANSPIRATION =        1746658.37     EVAPOTRANSPIRATION =          35140.32
           STREAMFLOW =         975464.33             STREAMFLOW =          30480.17
     GW BOUNDARY FLOW =          54532.14       GW BOUNDARY FLOW =            651.94

   INFLOWS - OUTFLOWS =        1740102.70     INFLOWS - OUTFLOWS =         -66272.43
             --------                                   --------

 TOTAL STORAGE CHANGE =        1745984.81         STORAGE CHANGE =         -66234.59
       --------------                             --------------
         LAND SURFACE =        1433268.50           LAND SURFACE =         -48191.47
            SOIL ZONE =        1993544.57              SOIL ZONE =          -8134.02
     UNSATURATED ZONE =       -1342656.03       UNSATURATED ZONE =          -5276.64
       SATURATED ZONE =        -338172.23         SATURATED ZONE =          -4632.46

 OVERALL BUDGET ERROR =          -5882.10           BUDGET ERROR =            -37.84


  PERCENT DISCREPANCY =             -0.13    PERCENT DISCREPANCY =             -0.06



1
 SUMMARY VOLUMETRIC BUDGET FOR GSFLOW 
 DATE: 12 30 1980              CUMULATIVE TIME STEP:      91
 MODFLOW STRESS PERIOD      2     CURRENT TIME STEP:      91     ITERATIONS:      11

 -----------------------------------------------------------------------------------

   CUMULATIVE VOLUMES               L**3   RATES FOR THIS TIME STEP           L**3/T
   ------------------                      ------------------------

                                     IN                                         IN
                                     --                                         --
        PRECIPITATION =        4516757.54          PRECIPITATION =                  
           STREAMFLOW =                               STREAMFLOW =                  
     GW BOUNDARY FLOW =                         GW BOUNDARY FLOW =                  


                                    OUT                                        OUT
                                    ---                                        ---
   EVAPOTRANSPIRATION =        2107290.87     EVAPOTRANSPIRATION =          45887.78
           STREAMFLOW =        1224101.27             STREAMFLOW =          27636.30
     GW BOUNDARY FLOW =          59099.13       GW BOUNDARY FLOW =            652.41

   INFLOWS - OUTFLOWS =        1126266.26     INFLOWS - OUTFLOWS =         -74176.49
             --------                                   --------

 TOTAL STORAGE CHANGE =        1132317.31         STORAGE CHANGE =         -74149.13
       --------------                             --------------
         LAND SURFACE =         641159.81           LAND SURFACE =         -40370.18
            SOIL ZONE =        2204218.79              SOIL ZONE =         -24674.34
     UNSATURATED ZONE =       -1350202.15       UNSATURATED ZONE =          -4989.98
       SATURATED ZONE =        -362859.15         SATURATED ZONE =          -4114.63

 OVERALL BUDGET ERROR =          -6051.05           BUDGET ERROR =            -27.37


  PERCENT DISCREPANCY =             -0.13    PERCENT DISCREPANCY =             -0.04



1
 SUMMARY VOLUMETRIC BUDGET FOR GSFLOW 
 DATE: 01 06 1981              CUMULATIVE TIME STEP:      98
 MODFLOW STRESS PERIOD      2     CURRENT TIME STEP:      98     ITERATIONS:       8

 -----------------------------------------------------------------------------------

   CUMULATIVE VOLUMES               L**3   RATES FOR THIS TIME STEP           L**3/T
   ------------------                      ------------------------

                                     IN                                         IN
                                     --                                         --
        PRECIPITATION =        5004445.43          PRECIPITATION =                  
           STREAMFLOW =                               STREAMFLOW =                  
     GW BOUNDARY FLOW =                         GW BOUNDARY FLOW =                  


                                    OUT                                        OUT
                                    ---                                        ---
   EVAPOTRANSPIRATION =        2335215.62     EVAPOTRANSPIRATION =          21388.78
           STREAMFLOW =        1379708.11             STREAMFLOW =          21364.72
     GW BOUNDARY FLOW =          63660.90       GW BOUNDARY FLOW =            651.28

   INFLOWS - OUTFLOWS =        1225860.80     INFLOWS - OUTFLOWS =         -43404.77
             --------                                   --------

 TOTAL STORAGE CHANGE =        1232120.71         STORAGE CHANGE =         -43367.42
       --------------                             --------------
         LAND SURFACE =         837080.27           LAND SURFACE =         -30417.06
            SOIL ZONE =        2210205.04              SOIL ZONE =           2615.73
     UNSATURATED ZONE =       -1415103.90       UNSATURATED ZONE =          -9926.32
       SATURATED ZONE =        -400060.70         SATURATED ZONE =          -5639.77

 OVERALL BUDGET ERROR =          -6259.91           BUDGET ERROR =            -37.36


  PERCENT DISCREPANCY =             -0.13    PERCENT DISCREPANCY =             -0.09



1
 SUMMARY VOLUMETRIC BUDGET FOR GSFLOW 
 DATE: 01 13 1981              CUMULATIVE TIME STEP:     105
 MODFLOW STRESS PERIOD      2     CURRENT TIME STEP:     105     ITERATIONS:       7

 -----------------------------------------------------------------------------------

   CUMULATIVE VOLUMES               L**3   RATES FOR THIS TIME STEP           L**3/T
   ------------------                      ------------------------

                                     IN                                         IN
                                     --                                         --
        PRECIPITATION =        5004445.43          PRECIPITATION =                  
           STREAMFLOW =                               STREAMFLOW =                  
     GW BOUNDARY FLOW =                         GW BOUNDARY FLOW =                  


                                    OUT                                        OUT
                                    ---                                        ---
   EVAPOTRANSPIRATION =        2552725.70     EVAPOTRANSPIRATION =          44453.93
           STREAMFLOW =        1528641.37             STREAMFLOW =          20147.49
     GW BOUNDARY FLOW =          68218.18       GW BOUNDARY FLOW =            650.85

   INFLOWS - OUTFLOWS =         854860.18     INFLOWS - OUTFLOWS =         -65252.27
             --------                                   --------

 TOTAL STORAGE CHANGE =         861491.18         STORAGE CHANGE =         -65187.69
       --------------                             --------------
         LAND SURFACE =         626702.00           LAND SURFACE =         -38991.59
            SOIL ZONE =        2156501.34              SOIL ZONE =         -10593.54
     UNSATURATED ZONE =       -1478926.59       UNSATURATED ZONE =          -9118.44
       SATURATED ZONE =        -442785.57         SATURATED ZONE =          -6484.12

 OVERALL BUDGET ERROR =          -6631.00           BUDGET ERROR =            -64.58


  PERCENT DISCREPANCY =             -0.13    PERCENT DISCREPANCY =             -0.10



1
 SUMMARY VOLUMETRIC BUDGET FOR GSFLOW 
 DATE: 01 20 1981              CUMULATIVE TIME STEP:     112
 MODFLOW STRESS PERIOD      2     CURRENT TIME STEP:     112     ITERATIONS:       7

 -----------------------------------------------------------------------------------

   CUMULATIVE VOLUMES               L**3   RATES FOR THIS TIME STEP           L**3/T
   ------------------                      ------------------------

                                     IN                                         IN
                                     --                                         --
        PRECIPITATION =        5170466.84          PRECIPITATION =          41505.35
           STREAMFLOW =                               STREAMFLOW =                  
     GW BOUNDARY FLOW =                         GW BOUNDARY FLOW =                  


                                    OUT                                        OUT
                                    ---                                        ---
   EVAPOTRANSPIRATION =        2833974.68     EVAPOTRANSPIRATION =          34835.17
           STREAMFLOW =        1671213.17             STREAMFLOW =          20265.62
     GW BOUNDARY FLOW =          72773.11       GW BOUNDARY FLOW =            650.66

   INFLOWS - OUTFLOWS =         592505.88     INFLOWS - OUTFLOWS =         -14246.09
             --------                                   --------

 TOTAL STORAGE CHANGE =         599462.60         STORAGE CHANGE =         -14193.83
       --------------                             --------------
         LAND SURFACE =         436285.42           LAND SURFACE =           4326.68
            SOIL ZONE =        2159440.33              SOIL ZONE =         -10241.24
     UNSATURATED ZONE =       -1509551.39       UNSATURATED ZONE =          -1785.87
       SATURATED ZONE =        -486711.76         SATURATED ZONE =          -6493.40

 OVERALL BUDGET ERROR =          -6956.72           BUDGET ERROR =            -52.27


  PERCENT DISCREPANCY =             -0.13    PERCENT DISCREPANCY =             -0.09



1
 SUMMARY VOLUMETRIC BUDGET FOR GSFLOW 
 DATE: 01 27 1981              CUMULATIVE TIME STEP:     119
 MODFLOW STRESS PERIOD      2     CURRENT TIME STEP:     119     ITERATIONS:       9

 -----------------------------------------------------------------------------------

   CUMULATIVE VOLUMES               L**3   RATES FOR THIS TIME STEP           L**3/T
   ------------------                      ------------------------

                                     IN                                         IN
                                     --                                         --
        PRECIPITATION =        8646540.08          PRECIPITATION =        2936503.63
           STREAMFLOW =                               STREAMFLOW =                  
     GW BOUNDARY FLOW =                         GW BOUNDARY FLOW =                  


                                    OUT                                        OUT
                                    ---                                        ---
   EVAPOTRANSPIRATION =        3067740.70     EVAPOTRANSPIRATION =          13120.97
           STREAMFLOW =        1817608.69             STREAMFLOW =          18747.10
     GW BOUNDARY FLOW =          77327.59       GW BOUNDARY FLOW =            650.46

   INFLOWS - OUTFLOWS =        3683863.09     INFLOWS - OUTFLOWS =        2903985.11
             --------                                   --------

 TOTAL STORAGE CHANGE =        3691002.95         STORAGE CHANGE =        2904007.72
       --------------                             --------------
         LAND SURFACE =        3540180.85           LAND SURFACE =        2923352.24
            SOIL ZONE =        2180468.38              SOIL ZONE =          -7861.42
     UNSATURATED ZONE =       -1498407.18       UNSATURATED ZONE =          -4739.51
       SATURATED ZONE =        -531239.10         SATURATED ZONE =          -6743.59

 OVERALL BUDGET ERROR =          -7139.86           BUDGET ERROR =            -22.61


  PERCENT DISCREPANCY =             -0.08    PERCENT DISCREPANCY =             -0.00



1
 SUMMARY VOLUMETRIC BUDGET FOR GSFLOW 
 DATE: 02 03 1981              CUMULATIVE TIME STEP:     126
 MODFLOW STRESS PERIOD      2     CURRENT TIME STEP:     126     ITERATIONS:       9

 -----------------------------------------------------------------------------------

   CUMULATIVE VOLUMES               L**3   RATES FOR THIS TIME STEP           L**3/T
   ------------------                      ------------------------

                                     IN                                         IN
                                     --                                         --
        PRECIPITATION =        1.1739D+07          PRECIPITATION =                  
           STREAMFLOW =                               STREAMFLOW =                  
     GW BOUNDARY FLOW =                         GW BOUNDARY FLOW =                  


                                    OUT                                        OUT
                                    ---                                        ---
   EVAPOTRANSPIRATION =        3104253.74     EVAPOTRANSPIRATION =           6975.48
           STREAMFLOW =        1944617.76             STREAMFLOW =          18014.91
     GW BOUNDARY FLOW =          81879.76       GW BOUNDARY FLOW =            650.26

   INFLOWS - OUTFLOWS =        6607937.50     INFLOWS - OUTFLOWS =         -25640.65
             --------                                   --------

 TOTAL STORAGE CHANGE =        6615227.55         STORAGE CHANGE =         -25622.93
       --------------                             --------------
         LAND SURFACE =        6595816.50           LAND SURFACE =          -6975.48
            SOIL ZONE =        2169018.95              SOIL ZONE =            420.58
     UNSATURATED ZONE =       -1567277.14       UNSATURATED ZONE =         -11417.56
       SATURATED ZONE =        -582330.76         SATURATED ZONE =          -7650.47

 OVERALL BUDGET ERROR =          -7290.05           BUDGET ERROR =            -17.72


  PERCENT DISCREPANCY =             -0.06    PERCENT DISCREPANCY =             -0.07



1
 SUMMARY VOLUMETRIC BUDGET FOR GSFLOW 
 DATE: 02 10 1981              CUMULATIVE TIME STEP:     133
 MODFLOW STRESS PERIOD      2     CURRENT TIME STEP:     133     ITERATIONS:       7

 -----------------------------------------------------------------------------------

   CUMULATIVE VOLUMES               L**3   RATES FOR THIS TIME STEP           L**3/T
   ------------------                      ------------------------

                                     IN                                         IN
                                     --                                         --
        PRECIPITATION =        1.1838D+07          PRECIPITATION =                  
           STREAMFLOW =                               STREAMFLOW =                  
     GW BOUNDARY FLOW =                         GW BOUNDARY FLOW =                  


                                    OUT                                        OUT
                                    ---                                        ---
   EVAPOTRANSPIRATION =        3229654.81     EVAPOTRANSPIRATION =          32880.06
           STREAMFLOW =        2070940.65             STREAMFLOW =          18066.73
     GW BOUNDARY FLOW =          86431.56       GW BOUNDARY FLOW =            650.25

   INFLOWS - OUTFLOWS =        6451226.26     INFLOWS - OUTFLOWS =         -51597.03
             --------                                   --------

 TOTAL STORAGE CHANGE =        6458830.08         STORAGE CHANGE =         -51537.16
       --------------                             --------------
         LAND SURFACE =        6569979.95           LAND SURFACE =         -32880.06
            SOIL ZONE =        2173150.33              SOIL ZONE =            561.08
     UNSATURATED ZONE =       -1645785.70       UNSATURATED ZONE =         -10843.79
       SATURATED ZONE =        -638514.50         SATURATED ZONE =          -8374.40

 OVERALL BUDGET ERROR =          -7603.82           BUDGET ERROR =            -59.88


  PERCENT DISCREPANCY =             -0.06    PERCENT DISCREPANCY =             -0.12



1
 SUMMARY VOLUMETRIC BUDGET FOR GSFLOW 
 DATE: 02 17 1981              CUMULATIVE TIME STEP:     140
 MODFLOW STRESS PERIOD      2     CURRENT TIME STEP:     140     ITERATIONS:      14

 -----------------------------------------------------------------------------------

   CUMULATIVE VOLUMES               L**3   RATES FOR THIS TIME STEP           L**3/T
   ------------------                      ------------------------

                                     IN                                         IN
                                     --                                         --
        PRECIPITATION =        1.2765D+07          PRECIPITATION =          68929.28
           STREAMFLOW =                               STREAMFLOW =                  
     GW BOUNDARY FLOW =                         GW BOUNDARY FLOW =                  


                                    OUT                                        OUT
                                    ---                                        ---
   EVAPOTRANSPIRATION =        3567752.60     EVAPOTRANSPIRATION =          68607.56
           STREAMFLOW =        2616671.04             STREAMFLOW =         125638.88
     GW BOUNDARY FLOW =          91005.54       GW BOUNDARY FLOW =            656.87

   INFLOWS - OUTFLOWS =        6489539.92     INFLOWS - OUTFLOWS =        -125974.04
             --------                                   --------

 TOTAL STORAGE CHANGE =        6497411.75         STORAGE CHANGE =        -125960.18
       --------------                             --------------
         LAND SURFACE =        5590061.11           LAND SURFACE =        -278671.93
            SOIL ZONE =        2961591.54              SOIL ZONE =          72159.87
     UNSATURATED ZONE =       -1400074.08       UNSATURATED ZONE =          77969.75
       SATURATED ZONE =        -654166.83         SATURATED ZONE =           2582.13

 OVERALL BUDGET ERROR =          -7871.83           BUDGET ERROR =            -13.86


  PERCENT DISCREPANCY =             -0.06    PERCENT DISCREPANCY =             -0.01



1
 SUMMARY VOLUMETRIC BUDGET FOR GSFLOW 
 DATE: 02 24 1981              CUMULATIVE TIME STEP:     147
 MODFLOW STRESS PERIOD      2     CURRENT TIME STEP:     147     ITERATIONS:      14

 -----------------------------------------------------------------------------------

   CUMULATIVE VOLUMES               L**3   RATES FOR THIS TIME STEP           L**3/T
   ------------------                      ------------------------

                                     IN                                         IN
                                     --                                         --
        PRECIPITATION =        1.3179D+07          PRECIPITATION =         344646.37
           STREAMFLOW =                               STREAMFLOW =                  
     GW BOUNDARY FLOW =                         GW BOUNDARY FLOW =                  


                                    OUT                                        OUT
                                    ---                                        ---
   EVAPOTRANSPIRATION =        3909074.19     EVAPOTRANSPIRATION =          18832.76
           STREAMFLOW =        3176753.59             STREAMFLOW =          52180.29
     GW BOUNDARY FLOW =          95598.81       GW BOUNDARY FLOW =            655.15

   INFLOWS - OUTFLOWS =        5997118.16     INFLOWS - OUTFLOWS =         272978.16
             --------                                   --------

 TOTAL STORAGE CHANGE =        6004940.31         STORAGE CHANGE =         272974.22
       --------------                             --------------
         LAND SURFACE =        4984244.21           LAND SURFACE =         286368.61
            SOIL ZONE =        2698138.13              SOIL ZONE =         -43302.30
     UNSATURATED ZONE =       -1047570.75       UNSATURATED ZONE =          27486.68
       SATURATED ZONE =        -629871.28         SATURATED ZONE =           2421.22

 OVERALL BUDGET ERROR =          -7822.15           BUDGET ERROR =              3.94


  PERCENT DISCREPANCY =             -0.06    PERCENT DISCREPANCY =              0.00



1
 SUMMARY VOLUMETRIC BUDGET FOR GSFLOW 
 DATE: 03 03 1981              CUMULATIVE TIME STEP:     154
 MODFLOW STRESS PERIOD      2     CURRENT TIME STEP:     154     ITERATIONS:      11

 -----------------------------------------------------------------------------------

   CUMULATIVE VOLUMES               L**3   RATES FOR THIS TIME STEP           L**3/T
   ------------------                      ------------------------

                                     IN                                         IN
                                     --                                         --
        PRECIPITATION =        1.3447D+07          PRECIPITATION =                  
           STREAMFLOW =                               STREAMFLOW =                  
     GW BOUNDARY FLOW =                         GW BOUNDARY FLOW =                  


                                    OUT                                        OUT
                                    ---                                        ---
   EVAPOTRANSPIRATION =        4069756.92     EVAPOTRANSPIRATION =          45353.75
           STREAMFLOW =        3401119.10             STREAMFLOW =          27810.21
     GW BOUNDARY FLOW =         100171.78       GW BOUNDARY FLOW =            652.32

   INFLOWS - OUTFLOWS =        5875555.24     INFLOWS - OUTFLOWS =         -73816.28
             --------                                   --------

 TOTAL STORAGE CHANGE =        5883263.12         STORAGE CHANGE =         -73830.61
       --------------                             --------------
         LAND SURFACE =        5068137.31           LAND SURFACE =         -66041.98
            SOIL ZONE =        2489693.25              SOIL ZONE =           2873.41
     UNSATURATED ZONE =       -1041084.08       UNSATURATED ZONE =          -8824.04
       SATURATED ZONE =        -633483.36         SATURATED ZONE =          -1837.99

 OVERALL BUDGET ERROR =          -7707.89           BUDGET ERROR =             14.33


  PERCENT DISCREPANCY =             -0.06    PERCENT DISCREPANCY =              0.02



1
 SUMMARY VOLUMETRIC BUDGET FOR GSFLOW 
 DATE: 03 10 1981              CUMULATIVE TIME STEP:     161
 MODFLOW STRESS PERIOD      2     CURRENT TIME STEP:     161     ITERATIONS:      11

 -----------------------------------------------------------------------------------

   CUMULATIVE VOLUMES               L**3   RATES FOR THIS TIME STEP           L**3/T
   ------------------                      ------------------------

                                     IN                                         IN
                                     --                                         --
        PRECIPITATION =        1.3493D+07          PRECIPITATION =                  
           STREAMFLOW =                               STREAMFLOW =                  
     GW BOUNDARY FLOW =                         GW BOUNDARY FLOW =                  


                                    OUT                                        OUT
                                    ---                                        ---
   EVAPOTRANSPIRATION =        4415546.50     EVAPOTRANSPIRATION =          72811.00
           STREAMFLOW =        3637450.12             STREAMFLOW =          43703.40
     GW BOUNDARY FLOW =         104737.89       GW BOUNDARY FLOW =            652.94

   INFLOWS - OUTFLOWS =        5335206.65     INFLOWS - OUTFLOWS =        -117167.34
             --------                                   --------

 TOTAL STORAGE CHANGE =        5342828.53         STORAGE CHANGE =        -117180.59
       --------------                             --------------
         LAND SURFACE =        4391652.97           LAND SURFACE =        -169089.79
            SOIL ZONE =        2603638.58              SOIL ZONE =          28982.26
     UNSATURATED ZONE =       -1008016.24       UNSATURATED ZONE =          23159.87
       SATURATED ZONE =        -644446.78         SATURATED ZONE =           -232.93

 OVERALL BUDGET ERROR =          -7621.88           BUDGET ERROR =             13.26


  PERCENT DISCREPANCY =             -0.06    PERCENT DISCREPANCY =              0.01



1
 SUMMARY VOLUMETRIC BUDGET FOR GSFLOW 
 DATE: 03 17 1981              CUMULATIVE TIME STEP:     168
 MODFLOW STRESS PERIOD      2     CURRENT TIME STEP:     168     ITERATIONS:       9

 -----------------------------------------------------------------------------------

   CUMULATIVE VOLUMES               L**3   RATES FOR THIS TIME STEP           L**3/T
   ------------------                      ------------------------

                                     IN                                         IN
                                     --                                         --
        PRECIPITATION =        1.3744D+07          PRECIPITATION =                  
           STREAMFLOW =                               STREAMFLOW =                  
     GW BOUNDARY FLOW =                         GW BOUNDARY FLOW =                  


                                    OUT                                        OUT
                                    ---                                        ---
   EVAPOTRANSPIRATION =        4783956.26     EVAPOTRANSPIRATION =          40234.36
           STREAMFLOW =        3864786.78             STREAMFLOW =          24167.59
     GW BOUNDARY FLOW =         109305.21       GW BOUNDARY FLOW =            651.88

   INFLOWS - OUTFLOWS =        4986442.64     INFLOWS - OUTFLOWS =         -65053.84
             --------                                   --------

 TOTAL STORAGE CHANGE =        4993980.39         STORAGE CHANGE =         -65057.47
       --------------                             --------------
         LAND SURFACE =        4202420.68           LAND SURFACE =         -39897.13
            SOIL ZONE =        2438297.73              SOIL ZONE =          -5409.99
     UNSATURATED ZONE =        -987185.01       UNSATURATED ZONE =         -15785.23
       SATURATED ZONE =        -659553.01         SATURATED ZONE =          -3965.12

 OVERALL BUDGET ERROR =          -7537.75           BUDGET ERROR =              3.63


  PERCENT DISCREPANCY =             -0.05    PERCENT DISCREPANCY =              0.01



1
 SUMMARY VOLUMETRIC BUDGET FOR GSFLOW 
 DATE: 03 24 1981              CUMULATIVE TIME STEP:     175
 MODFLOW STRESS PERIOD      2     CURRENT TIME STEP:     175     ITERATIONS:       9

 -----------------------------------------------------------------------------------

   CUMULATIVE VOLUMES               L**3   RATES FOR THIS TIME STEP           L**3/T
   ------------------                      ------------------------

                                     IN                                         IN
                                     --                                         --
        PRECIPITATION =        1.4367D+07          PRECIPITATION =                  
           STREAMFLOW =                               STREAMFLOW =                  
     GW BOUNDARY FLOW =                         GW BOUNDARY FLOW =                  


                                    OUT                                        OUT
                                    ---                                        ---
   EVAPOTRANSPIRATION =        5139733.59     EVAPOTRANSPIRATION =          87428.11
           STREAMFLOW =        4040795.38             STREAMFLOW =          26842.25
     GW BOUNDARY FLOW =         113865.69       GW BOUNDARY FLOW =            651.46

   INFLOWS - OUTFLOWS =        5072350.85     INFLOWS - OUTFLOWS =        -114921.81
             --------                                   --------

 TOTAL STORAGE CHANGE =        5079909.31         STORAGE CHANGE =        -114925.76
       --------------                             --------------
         LAND SURFACE =        4477696.12           LAND SURFACE =         -65035.10
            SOIL ZONE =        2351079.82              SOIL ZONE =         -41078.56
     UNSATURATED ZONE =       -1057844.68       UNSATURATED ZONE =          -4274.05
       SATURATED ZONE =        -691021.96         SATURATED ZONE =          -4538.05

 OVERALL BUDGET ERROR =          -7558.46           BUDGET ERROR =              3.95


  PERCENT DISCREPANCY =             -0.05    PERCENT DISCREPANCY =              0.00



1
 SUMMARY VOLUMETRIC BUDGET FOR GSFLOW 
 DATE: 03 31 1981              CUMULATIVE TIME STEP:     182
 MODFLOW STRESS PERIOD      2     CURRENT TIME STEP:     182     ITERATIONS:      12

 -----------------------------------------------------------------------------------

   CUMULATIVE VOLUMES               L**3   RATES FOR THIS TIME STEP           L**3/T
   ------------------                      ------------------------

                                     IN                                         IN
                                     --                                         --
        PRECIPITATION =        1.5777D+07          PRECIPITATION =                  
           STREAMFLOW =                               STREAMFLOW =                  
     GW BOUNDARY FLOW =                         GW BOUNDARY FLOW =                  


                                    OUT                                        OUT
                                    ---                                        ---
   EVAPOTRANSPIRATION =        5569670.98     EVAPOTRANSPIRATION =          54090.27
           STREAMFLOW =        4550096.45             STREAMFLOW =          37150.25
     GW BOUNDARY FLOW =         118447.75       GW BOUNDARY FLOW =            653.61

   INFLOWS - OUTFLOWS =        5538532.81     INFLOWS - OUTFLOWS =         -91894.13
             --------                                   --------

 TOTAL STORAGE CHANGE =        5546034.23         STORAGE CHANGE =         -91916.70
       --------------                             --------------
         LAND SURFACE =        4494242.72           LAND SURFACE =         -55488.75
            SOIL ZONE =        2547520.65              SOIL ZONE =         -41753.80
     UNSATURATED ZONE =        -813361.98       UNSATURATED ZONE =           5959.21
       SATURATED ZONE =        -682367.17         SATURATED ZONE =           -633.35

 OVERALL BUDGET ERROR =          -7501.42           BUDGET ERROR =             22.57


  PERCENT DISCREPANCY =             -0.05    PERCENT DISCREPANCY =              0.02



1
 SUMMARY VOLUMETRIC BUDGET FOR GSFLOW 
 DATE: 04 07 1981              CUMULATIVE TIME STEP:     189
 MODFLOW STRESS PERIOD      2     CURRENT TIME STEP:     189     ITERATIONS:      10

 -----------------------------------------------------------------------------------

   CUMULATIVE VOLUMES               L**3   RATES FOR THIS TIME STEP           L**3/T
   ------------------                      ------------------------

                                     IN                                         IN
                                     --                                         --
        PRECIPITATION =        1.6121D+07          PRECIPITATION =                  
           STREAMFLOW =                               STREAMFLOW =                  
     GW BOUNDARY FLOW =                         GW BOUNDARY FLOW =                  


                                    OUT                                        OUT
                                    ---                                        ---
   EVAPOTRANSPIRATION =        6195737.22     EVAPOTRANSPIRATION =         103845.38
           STREAMFLOW =        4868708.98             STREAMFLOW =          43444.32
     GW BOUNDARY FLOW =         123023.09       GW BOUNDARY FLOW =            653.74

   INFLOWS - OUTFLOWS =        4933998.31     INFLOWS - OUTFLOWS =        -147943.44
             --------                                   --------

 TOTAL STORAGE CHANGE =        4941396.02         STORAGE CHANGE =        -147961.96
       --------------                             --------------
         LAND SURFACE =        3870170.36           LAND SURFACE =        -138668.80
            SOIL ZONE =        2478815.30              SOIL ZONE =         -20354.09
     UNSATURATED ZONE =        -729485.67       UNSATURATED ZONE =          10706.89
       SATURATED ZONE =        -678103.98         SATURATED ZONE =            354.03

 OVERALL BUDGET ERROR =          -7397.71           BUDGET ERROR =             18.52


  PERCENT DISCREPANCY =             -0.05    PERCENT DISCREPANCY =              0.01



1
 SUMMARY VOLUMETRIC BUDGET FOR GSFLOW 
 DATE: 04 14 1981              CUMULATIVE TIME STEP:     196
 MODFLOW STRESS PERIOD      2     CURRENT TIME STEP:     196     ITERATIONS:      13

 -----------------------------------------------------------------------------------

   CUMULATIVE VOLUMES               L**3   RATES FOR THIS TIME STEP           L**3/T
   ------------------                      ------------------------

                                     IN                                         IN
                                     --                                         --
        PRECIPITATION =        1.6121D+07          PRECIPITATION =                  
           STREAMFLOW =                               STREAMFLOW =                  
     GW BOUNDARY FLOW =                         GW BOUNDARY FLOW =                  


                                    OUT                                        OUT
                                    ---                                        ---
   EVAPOTRANSPIRATION =        7106426.74     EVAPOTRANSPIRATION =         191911.71
           STREAMFLOW =        5196239.09             STREAMFLOW =          55525.57
     GW BOUNDARY FLOW =         127598.52       GW BOUNDARY FLOW =            653.68

   INFLOWS - OUTFLOWS =        3691203.25     INFLOWS - OUTFLOWS =        -248090.97
             --------                                   --------

 TOTAL STORAGE CHANGE =        3698469.71         STORAGE CHANGE =        -248104.39
       --------------                             --------------
         LAND SURFACE =        2621455.97           LAND SURFACE =        -253007.68
            SOIL ZONE =        2387274.17              SOIL ZONE =         -16804.75
     UNSATURATED ZONE =        -639155.84       UNSATURATED ZONE =          19489.22
       SATURATED ZONE =        -671104.59         SATURATED ZONE =           2218.83

 OVERALL BUDGET ERROR =          -7266.46           BUDGET ERROR =             13.42


  PERCENT DISCREPANCY =             -0.05    PERCENT DISCREPANCY =              0.01



1
 SUMMARY VOLUMETRIC BUDGET FOR GSFLOW 
 DATE: 04 21 1981              CUMULATIVE TIME STEP:     203
 MODFLOW STRESS PERIOD      2     CURRENT TIME STEP:     203     ITERATIONS:      12

 -----------------------------------------------------------------------------------

   CUMULATIVE VOLUMES               L**3   RATES FOR THIS TIME STEP           L**3/T
   ------------------                      ------------------------

                                     IN                                         IN
                                     --                                         --
        PRECIPITATION =        1.6310D+07          PRECIPITATION =                  
           STREAMFLOW =                               STREAMFLOW =                  
     GW BOUNDARY FLOW =                         GW BOUNDARY FLOW =                  


                                    OUT                                        OUT
                                    ---                                        ---
   EVAPOTRANSPIRATION =        8178390.57     EVAPOTRANSPIRATION =         152247.85
           STREAMFLOW =        5535774.31             STREAMFLOW =          45835.13
     GW BOUNDARY FLOW =         132169.99       GW BOUNDARY FLOW =            652.64

   INFLOWS - OUTFLOWS =        2463907.77     INFLOWS - OUTFLOWS =        -198735.62
             --------                                   --------

 TOTAL STORAGE CHANGE =        2471046.20         STORAGE CHANGE =        -198765.82
       --------------                             --------------
         LAND SURFACE =        1440926.25           LAND SURFACE =        -121359.42
            SOIL ZONE =        2205498.05              SOIL ZONE =         -97184.15
     UNSATURATED ZONE =        -521974.14       UNSATURATED ZONE =          16838.50
       SATURATED ZONE =        -653403.96         SATURATED ZONE =           2939.26

 OVERALL BUDGET ERROR =          -7138.43           BUDGET ERROR =             30.19


  PERCENT DISCREPANCY =             -0.04    PERCENT DISCREPANCY =              0.02



1
 SUMMARY VOLUMETRIC BUDGET FOR GSFLOW 
 DATE: 04 28 1981              CUMULATIVE TIME STEP:     210
 MODFLOW STRESS PERIOD      2     CURRENT TIME STEP:     210     ITERATIONS:      14

 -----------------------------------------------------------------------------------

   CUMULATIVE VOLUMES               L**3   RATES FOR THIS TIME STEP           L**3/T
   ------------------                      ------------------------

                                     IN                                         IN
                                     --                                         --
        PRECIPITATION =        1.6515D+07          PRECIPITATION =                  
           STREAMFLOW =                               STREAMFLOW =                  
     GW BOUNDARY FLOW =                         GW BOUNDARY FLOW =                  


                                    OUT                                        OUT
                                    ---                                        ---
   EVAPOTRANSPIRATION =        9416886.91     EVAPOTRANSPIRATION =         200405.69
           STREAMFLOW =        5748130.53             STREAMFLOW =          24699.26
     GW BOUNDARY FLOW =         136729.49       GW BOUNDARY FLOW =            650.47

   INFLOWS - OUTFLOWS =        1213685.95     INFLOWS - OUTFLOWS =        -225755.42
             --------                                   --------

 TOTAL STORAGE CHANGE =        1220718.17         STORAGE CHANGE =        -225769.45
       --------------                             --------------
         LAND SURFACE =         691530.95           LAND SURFACE =         -83509.90
            SOIL ZONE =        1695320.44              SOIL ZONE =        -138438.09
     UNSATURATED ZONE =        -520669.23       UNSATURATED ZONE =          -4117.21
       SATURATED ZONE =        -645463.99         SATURATED ZONE =            295.75

 OVERALL BUDGET ERROR =          -7032.22           BUDGET ERROR =             14.03


  PERCENT DISCREPANCY =             -0.04    PERCENT DISCREPANCY =              0.01



1
 SUMMARY VOLUMETRIC BUDGET FOR GSFLOW 
 DATE: 05 05 1981              CUMULATIVE TIME STEP:     217
 MODFLOW STRESS PERIOD      2     CURRENT TIME STEP:     217     ITERATIONS:      13

 -----------------------------------------------------------------------------------

   CUMULATIVE VOLUMES               L**3   RATES FOR THIS TIME STEP           L**3/T
   ------------------                      ------------------------

                                     IN                                         IN
                                     --                                         --
        PRECIPITATION =        1.6515D+07          PRECIPITATION =                  
           STREAMFLOW =                               STREAMFLOW =                  
     GW BOUNDARY FLOW =                         GW BOUNDARY FLOW =                  


                                    OUT                                        OUT
                                    ---                                        ---
   EVAPOTRANSPIRATION =        1.0268D+07     EVAPOTRANSPIRATION =          47821.05
           STREAMFLOW =        5854164.80             STREAMFLOW =          10871.48
     GW BOUNDARY FLOW =         141275.92       GW BOUNDARY FLOW =            648.80

   INFLOWS - OUTFLOWS =         252297.00     INFLOWS - OUTFLOWS =         -59341.33
             --------                                   --------

 TOTAL STORAGE CHANGE =         259265.72         STORAGE CHANGE =         -59345.29
       --------------                             --------------
         LAND SURFACE =         347350.76           LAND SURFACE =         -17502.06
            SOIL ZONE =        1187480.63              SOIL ZONE =         -23028.57
     UNSATURATED ZONE =        -617144.94       UNSATURATED ZONE =         -15761.22
       SATURATED ZONE =        -658420.73         SATURATED ZONE =          -3053.44

 OVERALL BUDGET ERROR =          -6968.71           BUDGET ERROR =              3.95


  PERCENT DISCREPANCY =             -0.04    PERCENT DISCREPANCY =              0.01



1
 SUMMARY VOLUMETRIC BUDGET FOR GSFLOW 
 DATE: 05 12 1981              CUMULATIVE TIME STEP:     224
 MODFLOW STRESS PERIOD      2     CURRENT TIME STEP:     224     ITERATIONS:      18

 -----------------------------------------------------------------------------------

   CUMULATIVE VOLUMES               L**3   RATES FOR THIS TIME STEP           L**3/T
   ------------------                      ------------------------

                                     IN                                         IN
                                     --                                         --
        PRECIPITATION =        1.6515D+07          PRECIPITATION =                  
           STREAMFLOW =                               STREAMFLOW =                  
     GW BOUNDARY FLOW =                         GW BOUNDARY FLOW =                  


                                    OUT                                        OUT
                                    ---                                        ---
   EVAPOTRANSPIRATION =        1.0759D+07     EVAPOTRANSPIRATION =          90819.25
           STREAMFLOW =        5925308.90             STREAMFLOW =          10488.57
     GW BOUNDARY FLOW =         145814.60       GW BOUNDARY FLOW =            648.22

   INFLOWS - OUTFLOWS =        -314556.25     INFLOWS - OUTFLOWS =        -101956.04
             --------                                   --------

 TOTAL STORAGE CHANGE =        -307591.84         STORAGE CHANGE =        -101950.13
       --------------                             --------------
         LAND SURFACE =         198678.97           LAND SURFACE =         -25500.84
            SOIL ZONE =         903948.26              SOIL ZONE =         -57629.53
     UNSATURATED ZONE =        -722168.01       UNSATURATED ZONE =         -13422.87
       SATURATED ZONE =        -688051.06         SATURATED ZONE =          -5396.90

 OVERALL BUDGET ERROR =          -6964.42           BUDGET ERROR =             -5.91


  PERCENT DISCREPANCY =             -0.04    PERCENT DISCREPANCY =             -0.01



1
 SUMMARY VOLUMETRIC BUDGET FOR GSFLOW 
 DATE: 05 19 1981              CUMULATIVE TIME STEP:     231
 MODFLOW STRESS PERIOD      2     CURRENT TIME STEP:     231     ITERATIONS:      17

 -----------------------------------------------------------------------------------

   CUMULATIVE VOLUMES               L**3   RATES FOR THIS TIME STEP           L**3/T
   ------------------                      ------------------------

                                     IN                                         IN
                                     --                                         --
        PRECIPITATION =        1.7837D+07          PRECIPITATION =         169045.43
           STREAMFLOW =                               STREAMFLOW =                  
     GW BOUNDARY FLOW =                         GW BOUNDARY FLOW =                  


                                    OUT                                        OUT
                                    ---                                        ---
   EVAPOTRANSPIRATION =        1.1102D+07     EVAPOTRANSPIRATION =          32129.65
           STREAMFLOW =        6056451.48             STREAMFLOW =          27356.14
     GW BOUNDARY FLOW =         150354.13       GW BOUNDARY FLOW =            649.57

   INFLOWS - OUTFLOWS =         528007.97     INFLOWS - OUTFLOWS =         108910.06
             --------                                   --------

 TOTAL STORAGE CHANGE =         534982.72         STORAGE CHANGE =         108916.36
       --------------                             --------------
         LAND SURFACE =         167097.84           LAND SURFACE =           4534.24
            SOIL ZONE =        1884673.14              SOIL ZONE =         110155.20
     UNSATURATED ZONE =        -789794.95       UNSATURATED ZONE =           -535.15
       SATURATED ZONE =        -726993.32         SATURATED ZONE =          -5237.93

 OVERALL BUDGET ERROR =          -6974.75           BUDGET ERROR =             -6.29


  PERCENT DISCREPANCY =             -0.04    PERCENT DISCREPANCY =             -0.00



1
 SUMMARY VOLUMETRIC BUDGET FOR GSFLOW 
 DATE: 05 26 1981              CUMULATIVE TIME STEP:     238
 MODFLOW STRESS PERIOD      2     CURRENT TIME STEP:     238     ITERATIONS:      13

 -----------------------------------------------------------------------------------

   CUMULATIVE VOLUMES               L**3   RATES FOR THIS TIME STEP           L**3/T
   ------------------                      ------------------------

                                     IN                                         IN
                                     --                                         --
        PRECIPITATION =        1.8252D+07          PRECIPITATION =         284303.67
           STREAMFLOW =                               STREAMFLOW =                  
     GW BOUNDARY FLOW =                         GW BOUNDARY FLOW =                  


                                    OUT                                        OUT
                                    ---                                        ---
   EVAPOTRANSPIRATION =        1.1924D+07     EVAPOTRANSPIRATION =         132233.27
           STREAMFLOW =        6170012.46             STREAMFLOW =          19495.87
     GW BOUNDARY FLOW =         154895.60       GW BOUNDARY FLOW =            648.54

   INFLOWS - OUTFLOWS =           3269.99     INFLOWS - OUTFLOWS =         131925.99
             --------                                   --------

 TOTAL STORAGE CHANGE =          10253.77         STORAGE CHANGE =         131934.13
       --------------                             --------------
         LAND SURFACE =          96880.50           LAND SURFACE =          -7049.94
            SOIL ZONE =        1534295.18              SOIL ZONE =         156321.88
     UNSATURATED ZONE =        -846858.46       UNSATURATED ZONE =         -10695.24
       SATURATED ZONE =        -774063.45         SATURATED ZONE =          -6642.56

 OVERALL BUDGET ERROR =          -6983.78           BUDGET ERROR =             -8.14


  PERCENT DISCREPANCY =             -0.04    PERCENT DISCREPANCY =             -0.00



1
 SUMMARY VOLUMETRIC BUDGET FOR GSFLOW 
 DATE: 06 02 1981              CUMULATIVE TIME STEP:     245
 MODFLOW STRESS PERIOD      2     CURRENT TIME STEP:     245     ITERATIONS:      14

 -----------------------------------------------------------------------------------

   CUMULATIVE VOLUMES               L**3   RATES FOR THIS TIME STEP           L**3/T
   ------------------                      ------------------------

                                     IN                                         IN
                                     --                                         --
        PRECIPITATION =        1.8318D+07          PRECIPITATION =          50869.96
           STREAMFLOW =                               STREAMFLOW =                  
     GW BOUNDARY FLOW =                         GW BOUNDARY FLOW =                  


                                    OUT                                        OUT
                                    ---                                        ---
   EVAPOTRANSPIRATION =        1.2720D+07     EVAPOTRANSPIRATION =          69334.98
           STREAMFLOW =        6240832.65             STREAMFLOW =           7792.43
     GW BOUNDARY FLOW =         159430.94       GW BOUNDARY FLOW =            647.45

   INFLOWS - OUTFLOWS =        -802478.78     INFLOWS - OUTFLOWS =         -26904.89
             --------                                   --------

 TOTAL STORAGE CHANGE =        -795475.15         STORAGE CHANGE =         -26895.32
       --------------                             --------------
         LAND SURFACE =          61812.20           LAND SURFACE =          30830.75
            SOIL ZONE =         908197.60              SOIL ZONE =         -35679.28
     UNSATURATED ZONE =        -934817.12       UNSATURATED ZONE =         -13671.54
       SATURATED ZONE =        -830667.83         SATURATED ZONE =          -8375.25

 OVERALL BUDGET ERROR =          -7003.64           BUDGET ERROR =             -9.57


  PERCENT DISCREPANCY =             -0.04    PERCENT DISCREPANCY =             -0.01



1
 SUMMARY VOLUMETRIC BUDGET FOR GSFLOW 
 DATE: 06 09 1981              CUMULATIVE TIME STEP:     252
 MODFLOW STRESS PERIOD      2     CURRENT TIME STEP:     252     ITERATIONS:      13

 -----------------------------------------------------------------------------------

   CUMULATIVE VOLUMES               L**3   RATES FOR THIS TIME STEP           L**3/T
   ------------------                      ------------------------

                                     IN                                         IN
                                     --                                         --
        PRECIPITATION =        1.8318D+07          PRECIPITATION =                  
           STREAMFLOW =                               STREAMFLOW =                  
     GW BOUNDARY FLOW =                         GW BOUNDARY FLOW =                  


                                    OUT                                        OUT
                                    ---                                        ---
   EVAPOTRANSPIRATION =        1.3216D+07     EVAPOTRANSPIRATION =          51758.84
           STREAMFLOW =        6288712.56             STREAMFLOW =           6433.63
     GW BOUNDARY FLOW =         163960.88       GW BOUNDARY FLOW =            646.96

   INFLOWS - OUTFLOWS =       -1350475.71     INFLOWS - OUTFLOWS =         -58839.43
             --------                                   --------

 TOTAL STORAGE CHANGE =       -1343445.08         STORAGE CHANGE =         -58833.92
       --------------                             --------------
         LAND SURFACE =           8252.08           LAND SURFACE =          -1595.17
            SOIL ZONE =         569181.35              SOIL ZONE =         -35005.36
     UNSATURATED ZONE =       -1028937.39       UNSATURATED ZONE =         -13320.47
       SATURATED ZONE =        -891941.12         SATURATED ZONE =          -8912.93

 OVERALL BUDGET ERROR =          -7030.63           BUDGET ERROR =             -5.51


  PERCENT DISCREPANCY =             -0.04    PERCENT DISCREPANCY =             -0.01



1
 SUMMARY VOLUMETRIC BUDGET FOR GSFLOW 
 DATE: 06 16 1981              CUMULATIVE TIME STEP:     259
 MODFLOW STRESS PERIOD      2     CURRENT TIME STEP:     259     ITERATIONS:      17

 -----------------------------------------------------------------------------------

   CUMULATIVE VOLUMES               L**3   RATES FOR THIS TIME STEP           L**3/T
   ------------------                      ------------------------

                                     IN                                         IN
                                     --                                         --
        PRECIPITATION =        1.8318D+07          PRECIPITATION =                  
           STREAMFLOW =                               STREAMFLOW =                  
     GW BOUNDARY FLOW =                         GW BOUNDARY FLOW =                  


                                    OUT                                        OUT
                                    ---                                        ---
   EVAPOTRANSPIRATION =        1.3408D+07     EVAPOTRANSPIRATION =          45426.27
           STREAMFLOW =        6332447.32             STREAMFLOW =           6177.34
     GW BOUNDARY FLOW =         168488.70       GW BOUNDARY FLOW =            646.75

   INFLOWS - OUTFLOWS =       -1591080.45     INFLOWS - OUTFLOWS =         -52250.36
             --------                                   --------

 TOTAL STORAGE CHANGE =       -1584020.70         STORAGE CHANGE =         -52242.13
       --------------                             --------------
         LAND SURFACE =           3425.60           LAND SURFACE =           -943.52
            SOIL ZONE =         487787.55              SOIL ZONE =         -29390.11
     UNSATURATED ZONE =       -1120035.65       UNSATURATED ZONE =         -12776.90
       SATURATED ZONE =        -955198.20         SATURATED ZONE =          -9131.59

 OVERALL BUDGET ERROR =          -7059.75           BUDGET ERROR =             -8.23


  PERCENT DISCREPANCY =             -0.04    PERCENT DISCREPANCY =             -0.02



1
 SUMMARY VOLUMETRIC BUDGET FOR GSFLOW 
 DATE: 06 23 1981              CUMULATIVE TIME STEP:     266
 MODFLOW STRESS PERIOD      2     CURRENT TIME STEP:     266     ITERATIONS:      14

 -----------------------------------------------------------------------------------

   CUMULATIVE VOLUMES               L**3   RATES FOR THIS TIME STEP           L**3/T
   ------------------                      ------------------------

                                     IN                                         IN
                                     --                                         --
        PRECIPITATION =        1.8318D+07          PRECIPITATION =                  
           STREAMFLOW =                               STREAMFLOW =                  
     GW BOUNDARY FLOW =                         GW BOUNDARY FLOW =                  


                                    OUT                                        OUT
                                    ---                                        ---
   EVAPOTRANSPIRATION =        1.3708D+07     EVAPOTRANSPIRATION =          34948.13
           STREAMFLOW =        6374636.63             STREAMFLOW =           5948.43
     GW BOUNDARY FLOW =         173015.22       GW BOUNDARY FLOW =            646.57

   INFLOWS - OUTFLOWS =       -1937085.52     INFLOWS - OUTFLOWS =         -41543.14
             --------                                   --------

 TOTAL STORAGE CHANGE =       -1930012.72         STORAGE CHANGE =         -41540.96
       --------------                             --------------
         LAND SURFACE =                             LAND SURFACE =                  
            SOIL ZONE =         297456.46              SOIL ZONE =         -19913.26
     UNSATURATED ZONE =       -1205970.76       UNSATURATED ZONE =         -11812.49
       SATURATED ZONE =       -1021498.42         SATURATED ZONE =          -9815.21

 OVERALL BUDGET ERROR =          -7072.80           BUDGET ERROR =             -2.18


  PERCENT DISCREPANCY =             -0.03    PERCENT DISCREPANCY =             -0.01



1
 SUMMARY VOLUMETRIC BUDGET FOR GSFLOW 
 DATE: 06 30 1981              CUMULATIVE TIME STEP:     273
 MODFLOW STRESS PERIOD      2     CURRENT TIME STEP:     273     ITERATIONS:       9

 -----------------------------------------------------------------------------------

   CUMULATIVE VOLUMES               L**3   RATES FOR THIS TIME STEP           L**3/T
   ------------------                      ------------------------

                                     IN                                         IN
[...]
                                    ---                                        ---
   EVAPOTRANSPIRATION =        2.8350D+08     EVAPOTRANSPIRATION =          44932.95
           STREAMFLOW =        1.8519D+08             STREAMFLOW =           7025.63
     GW BOUNDARY FLOW =        3736382.64       GW BOUNDARY FLOW =            650.84

   INFLOWS - OUTFLOWS =       -7362385.05     INFLOWS - OUTFLOWS =         -52609.42
             --------                                   --------

 TOTAL STORAGE CHANGE =       -7261167.51         STORAGE CHANGE =         -52626.86
       --------------                             --------------
         LAND SURFACE =          84495.33           LAND SURFACE =          -4962.88
            SOIL ZONE =         278698.12              SOIL ZONE =         -25966.85
     UNSATURATED ZONE =        5105920.84       UNSATURATED ZONE =         -27680.94
       SATURATED ZONE =       -1.2730D+07         SATURATED ZONE =           5983.81

 OVERALL BUDGET ERROR =        -101217.54           BUDGET ERROR =             17.44


  PERCENT DISCREPANCY =             -0.02    PERCENT DISCREPANCY =              0.03



1
 SUMMARY VOLUMETRIC BUDGET FOR GSFLOW 
 DATE: 07 30 1996              CUMULATIVE TIME STEP:    5782
 MODFLOW STRESS PERIOD      2     CURRENT TIME STEP:    5782     ITERATIONS:      14

 -----------------------------------------------------------------------------------

   CUMULATIVE VOLUMES               L**3   RATES FOR THIS TIME STEP           L**3/T
   ------------------                      ------------------------

                                     IN                                         IN
                                     --                                         --
        PRECIPITATION =        4.6511D+08          PRECIPITATION =                  
           STREAMFLOW =                               STREAMFLOW =                  
     GW BOUNDARY FLOW =                         GW BOUNDARY FLOW =                  


                                    OUT                                        OUT
                                    ---                                        ---
   EVAPOTRANSPIRATION =        2.8377D+08     EVAPOTRANSPIRATION =          30207.01
           STREAMFLOW =        1.8523D+08             STREAMFLOW =           6869.44
     GW BOUNDARY FLOW =        3740936.96       GW BOUNDARY FLOW =            650.46

   INFLOWS - OUTFLOWS =       -7636419.94     INFLOWS - OUTFLOWS =         -37726.90
             --------                                   --------

 TOTAL STORAGE CHANGE =       -7535337.14         STORAGE CHANGE =         -37748.64
       --------------                             --------------
         LAND SURFACE =          55405.90           LAND SURFACE =          -3487.93
            SOIL ZONE =         184091.57              SOIL ZONE =         -12900.60
     UNSATURATED ZONE =        4914475.87       UNSATURATED ZONE =         -26910.09
       SATURATED ZONE =       -1.2689D+07         SATURATED ZONE =           5549.97

 OVERALL BUDGET ERROR =        -101082.80           BUDGET ERROR =             21.74


  PERCENT DISCREPANCY =             -0.02    PERCENT DISCREPANCY =              0.06



1
 SUMMARY VOLUMETRIC BUDGET FOR GSFLOW 
 DATE: 08 06 1996              CUMULATIVE TIME STEP:    5789
 MODFLOW STRESS PERIOD      2     CURRENT TIME STEP:    5789     ITERATIONS:      15

 -----------------------------------------------------------------------------------

   CUMULATIVE VOLUMES               L**3   RATES FOR THIS TIME STEP           L**3/T
   ------------------                      ------------------------

                                     IN                                         IN
                                     --                                         --
        PRECIPITATION =        4.6511D+08          PRECIPITATION =                  
           STREAMFLOW =                               STREAMFLOW =                  
     GW BOUNDARY FLOW =                         GW BOUNDARY FLOW =                  


                                    OUT                                        OUT
                                    ---                                        ---
   EVAPOTRANSPIRATION =        2.8392D+08     EVAPOTRANSPIRATION =          19826.47
           STREAMFLOW =        1.8528D+08             STREAMFLOW =           6661.00
     GW BOUNDARY FLOW =        3745489.98       GW BOUNDARY FLOW =            650.38

   INFLOWS - OUTFLOWS =       -7833243.66     INFLOWS - OUTFLOWS =         -27137.86
             --------                                   --------

 TOTAL STORAGE CHANGE =       -7732275.83         STORAGE CHANGE =         -27148.26
       --------------                             --------------
         LAND SURFACE =          37062.04           LAND SURFACE =          -2253.66
            SOIL ZONE =         153734.43              SOIL ZONE =          -3855.38
     UNSATURATED ZONE =        4729382.17       UNSATURATED ZONE =         -25990.75
       SATURATED ZONE =       -1.2652D+07         SATURATED ZONE =           4951.54

 OVERALL BUDGET ERROR =        -100967.83           BUDGET ERROR =             10.41


  PERCENT DISCREPANCY =             -0.02    PERCENT DISCREPANCY =              0.04



1
 SUMMARY VOLUMETRIC BUDGET FOR GSFLOW 
 DATE: 08 13 1996              CUMULATIVE TIME STEP:    5796
 MODFLOW STRESS PERIOD      2     CURRENT TIME STEP:    5796     ITERATIONS:      14

 -----------------------------------------------------------------------------------

   CUMULATIVE VOLUMES               L**3   RATES FOR THIS TIME STEP           L**3/T
   ------------------                      ------------------------

                                     IN                                         IN
                                     --                                         --
        PRECIPITATION =        4.6531D+08          PRECIPITATION =          54454.08
           STREAMFLOW =                               STREAMFLOW =                  
     GW BOUNDARY FLOW =                         GW BOUNDARY FLOW =                  


                                    OUT                                        OUT
                                    ---                                        ---
   EVAPOTRANSPIRATION =        2.8409D+08     EVAPOTRANSPIRATION =          29381.14
           STREAMFLOW =        1.8533D+08             STREAMFLOW =           7873.83
     GW BOUNDARY FLOW =        3750042.18       GW BOUNDARY FLOW =            650.33

   INFLOWS - OUTFLOWS =       -7860497.62     INFLOWS - OUTFLOWS =          16548.78
             --------                                   --------

 TOTAL STORAGE CHANGE =       -7759623.37         STORAGE CHANGE =          16535.26
       --------------                             --------------
         LAND SURFACE =          53162.52           LAND SURFACE =          -2312.39
            SOIL ZONE =         256095.64              SOIL ZONE =          39491.52
     UNSATURATED ZONE =        4553974.58       UNSATURATED ZONE =         -24438.95
       SATURATED ZONE =       -1.2623D+07         SATURATED ZONE =           3795.08

 OVERALL BUDGET ERROR =        -100874.25           BUDGET ERROR =             13.51


  PERCENT DISCREPANCY =             -0.02    PERCENT DISCREPANCY =              0.02



1
 SUMMARY VOLUMETRIC BUDGET FOR GSFLOW 
 DATE: 08 20 1996              CUMULATIVE TIME STEP:    5803
 MODFLOW STRESS PERIOD      2     CURRENT TIME STEP:    5803     ITERATIONS:      14

 -----------------------------------------------------------------------------------

   CUMULATIVE VOLUMES               L**3   RATES FOR THIS TIME STEP           L**3/T
   ------------------                      ------------------------

                                     IN                                         IN
                                     --                                         --
        PRECIPITATION =        4.6531D+08          PRECIPITATION =                  
           STREAMFLOW =                               STREAMFLOW =                  
     GW BOUNDARY FLOW =                         GW BOUNDARY FLOW =                  


                                    OUT                                        OUT
                                    ---                                        ---
   EVAPOTRANSPIRATION =        2.8429D+08     EVAPOTRANSPIRATION =          19354.50
           STREAMFLOW =        1.8538D+08             STREAMFLOW =           6462.85
     GW BOUNDARY FLOW =        3754592.87       GW BOUNDARY FLOW =            649.92

   INFLOWS - OUTFLOWS =       -8111235.98     INFLOWS - OUTFLOWS =         -26467.27
             --------                                   --------

 TOTAL STORAGE CHANGE =       -8010457.80         STORAGE CHANGE =         -26481.27
       --------------                             --------------
         LAND SURFACE =           6921.38           LAND SURFACE =          -1297.31
            SOIL ZONE =         195808.91              SOIL ZONE =          -4677.67
     UNSATURATED ZONE =        4386929.96       UNSATURATED ZONE =         -23350.82
       SATURATED ZONE =       -1.2600D+07         SATURATED ZONE =           2844.54

 OVERALL BUDGET ERROR =        -100778.18           BUDGET ERROR =             14.00


  PERCENT DISCREPANCY =             -0.02    PERCENT DISCREPANCY =              0.05



1
 SUMMARY VOLUMETRIC BUDGET FOR GSFLOW 
 DATE: 08 27 1996              CUMULATIVE TIME STEP:    5810
 MODFLOW STRESS PERIOD      2     CURRENT TIME STEP:    5810     ITERATIONS:      12

 -----------------------------------------------------------------------------------

   CUMULATIVE VOLUMES               L**3   RATES FOR THIS TIME STEP           L**3/T
   ------------------                      ------------------------

                                     IN                                         IN
                                     --                                         --
        PRECIPITATION =        4.6531D+08          PRECIPITATION =                  
           STREAMFLOW =                               STREAMFLOW =                  
     GW BOUNDARY FLOW =                         GW BOUNDARY FLOW =                  


                                    OUT                                        OUT
                                    ---                                        ---
   EVAPOTRANSPIRATION =        2.8443D+08     EVAPOTRANSPIRATION =          15485.55
           STREAMFLOW =        1.8542D+08             STREAMFLOW =           6300.95
     GW BOUNDARY FLOW =        3759140.82       GW BOUNDARY FLOW =            649.54

   INFLOWS - OUTFLOWS =       -8300534.99     INFLOWS - OUTFLOWS =         -22436.04
             --------                                   --------

 TOTAL STORAGE CHANGE =       -8199899.25         STORAGE CHANGE =         -22461.61
       --------------                             --------------
         LAND SURFACE =           1243.96           LAND SURFACE =           -271.65
            SOIL ZONE =         154623.13              SOIL ZONE =          -1921.84
     UNSATURATED ZONE =        4227902.48       UNSATURATED ZONE =         -22193.57
       SATURATED ZONE =       -1.2584D+07         SATURATED ZONE =           1925.46

 OVERALL BUDGET ERROR =        -100635.74           BUDGET ERROR =             25.56


  PERCENT DISCREPANCY =             -0.02    PERCENT DISCREPANCY =              0.11



1
 SUMMARY VOLUMETRIC BUDGET FOR GSFLOW 
 DATE: 09 03 1996              CUMULATIVE TIME STEP:    5817
 MODFLOW STRESS PERIOD      2     CURRENT TIME STEP:    5817     ITERATIONS:      12

 -----------------------------------------------------------------------------------

   CUMULATIVE VOLUMES               L**3   RATES FOR THIS TIME STEP           L**3/T
   ------------------                      ------------------------

                                     IN                                         IN
                                     --                                         --
        PRECIPITATION =        4.6531D+08          PRECIPITATION =                  
           STREAMFLOW =                               STREAMFLOW =                  
     GW BOUNDARY FLOW =                         GW BOUNDARY FLOW =                  


                                    OUT                                        OUT
                                    ---                                        ---
   EVAPOTRANSPIRATION =        2.8454D+08     EVAPOTRANSPIRATION =          12838.72
           STREAMFLOW =        1.8547D+08             STREAMFLOW =           6196.15
     GW BOUNDARY FLOW =        3763686.00       GW BOUNDARY FLOW =            649.14

   INFLOWS - OUTFLOWS =       -8456020.29     INFLOWS - OUTFLOWS =         -19684.00
             --------                                   --------

 TOTAL STORAGE CHANGE =       -8355555.26         STORAGE CHANGE =         -19719.53
       --------------                             --------------
         LAND SURFACE =            583.76           LAND SURFACE =            -75.05
            SOIL ZONE =         140563.54              SOIL ZONE =            402.14
     UNSATURATED ZONE =        4072985.32       UNSATURATED ZONE =         -22054.06
       SATURATED ZONE =       -1.2570D+07         SATURATED ZONE =           2007.44

 OVERALL BUDGET ERROR =        -100465.03           BUDGET ERROR =             35.53


  PERCENT DISCREPANCY =             -0.02    PERCENT DISCREPANCY =              0.18



1
 SUMMARY VOLUMETRIC BUDGET FOR GSFLOW 
 DATE: 09 10 1996              CUMULATIVE TIME STEP:    5824
 MODFLOW STRESS PERIOD      2     CURRENT TIME STEP:    5824     ITERATIONS:      12

 -----------------------------------------------------------------------------------

   CUMULATIVE VOLUMES               L**3   RATES FOR THIS TIME STEP           L**3/T
   ------------------                      ------------------------

                                     IN                                         IN
                                     --                                         --
        PRECIPITATION =        4.6531D+08          PRECIPITATION =                  
           STREAMFLOW =                               STREAMFLOW =                  
     GW BOUNDARY FLOW =                         GW BOUNDARY FLOW =                  


                                    OUT                                        OUT
                                    ---                                        ---
   EVAPOTRANSPIRATION =        2.8463D+08     EVAPOTRANSPIRATION =          13260.67
           STREAMFLOW =        1.8551D+08             STREAMFLOW =           6104.04
     GW BOUNDARY FLOW =        3768228.44       GW BOUNDARY FLOW =            648.75

   INFLOWS - OUTFLOWS =       -8588831.62     INFLOWS - OUTFLOWS =         -20013.46
             --------                                   --------

 TOTAL STORAGE CHANGE =       -8488559.43         STORAGE CHANGE =         -20042.08
       --------------                             --------------
         LAND SURFACE =            141.35           LAND SURFACE =            -69.28
            SOIL ZONE =         147400.21              SOIL ZONE =           -150.82
     UNSATURATED ZONE =        3923776.80       UNSATURATED ZONE =         -20840.38
       SATURATED ZONE =       -1.2560D+07         SATURATED ZONE =           1018.40

 OVERALL BUDGET ERROR =        -100272.19           BUDGET ERROR =             28.62


  PERCENT DISCREPANCY =             -0.02    PERCENT DISCREPANCY =              0.14



1
 SUMMARY VOLUMETRIC BUDGET FOR GSFLOW 
 DATE: 09 17 1996              CUMULATIVE TIME STEP:    5831
 MODFLOW STRESS PERIOD      2     CURRENT TIME STEP:    5831     ITERATIONS:      12

 -----------------------------------------------------------------------------------

   CUMULATIVE VOLUMES               L**3   RATES FOR THIS TIME STEP           L**3/T
   ------------------                      ------------------------

                                     IN                                         IN
                                     --                                         --
        PRECIPITATION =        4.6637D+08          PRECIPITATION =                  
           STREAMFLOW =                               STREAMFLOW =                  
     GW BOUNDARY FLOW =                         GW BOUNDARY FLOW =                  


                                    OUT                                        OUT
                                    ---                                        ---
   EVAPOTRANSPIRATION =        2.8480D+08     EVAPOTRANSPIRATION =          58054.02
           STREAMFLOW =        1.8557D+08             STREAMFLOW =          10261.68
     GW BOUNDARY FLOW =        3772770.05       GW BOUNDARY FLOW =            649.14

   INFLOWS - OUTFLOWS =       -7783508.41     INFLOWS - OUTFLOWS =         -68964.84
             --------                                   --------

 TOTAL STORAGE CHANGE =       -7683499.51         STORAGE CHANGE =         -68994.82
       --------------                             --------------
         LAND SURFACE =           3348.24           LAND SURFACE =         -35098.95
            SOIL ZONE =        1085131.20              SOIL ZONE =         -14281.74
     UNSATURATED ZONE =        3782188.92       UNSATURATED ZONE =         -19813.35
       SATURATED ZONE =       -1.2554D+07         SATURATED ZONE =            199.22

 OVERALL BUDGET ERROR =        -100008.89           BUDGET ERROR =             29.98


  PERCENT DISCREPANCY =             -0.02    PERCENT DISCREPANCY =              0.04



1
 SUMMARY VOLUMETRIC BUDGET FOR GSFLOW 
 DATE: 09 24 1996              CUMULATIVE TIME STEP:    5838
 MODFLOW STRESS PERIOD      2     CURRENT TIME STEP:    5838     ITERATIONS:      16

 -----------------------------------------------------------------------------------

   CUMULATIVE VOLUMES               L**3   RATES FOR THIS TIME STEP           L**3/T
   ------------------                      ------------------------

                                     IN                                         IN
                                     --                                         --
        PRECIPITATION =        4.6637D+08          PRECIPITATION =                  
           STREAMFLOW =                               STREAMFLOW =                  
     GW BOUNDARY FLOW =                         GW BOUNDARY FLOW =                  


                                    OUT                                        OUT
                                    ---                                        ---
   EVAPOTRANSPIRATION =        2.8526D+08     EVAPOTRANSPIRATION =          54069.63
           STREAMFLOW =        1.8563D+08             STREAMFLOW =           6704.52
     GW BOUNDARY FLOW =        3777310.05       GW BOUNDARY FLOW =            648.23

   INFLOWS - OUTFLOWS =       -8304430.25     INFLOWS - OUTFLOWS =         -61422.38
             --------                                   --------

 TOTAL STORAGE CHANGE =       -8204569.65         STORAGE CHANGE =         -61426.80
       --------------                             --------------
         LAND SURFACE =                             LAND SURFACE =                  
            SOIL ZONE =         703933.01              SOIL ZONE =         -42023.21
     UNSATURATED ZONE =        3645824.61       UNSATURATED ZONE =         -19195.62
       SATURATED ZONE =       -1.2554D+07         SATURATED ZONE =           -207.96

 OVERALL BUDGET ERROR =         -99860.61           BUDGET ERROR =              4.41


  PERCENT DISCREPANCY =             -0.02    PERCENT DISCREPANCY =              0.01



