1
 SUMMARY VOLUMETRIC BUDGET FOR GSFLOW 
 DATE: 10 07 1980              CUMULATIVE TIME STEP:       7
 MODFLOW STRESS PERIOD      2     CURRENT TIME STEP:       7     ITERATIONS:       6

 -----------------------------------------------------------------------------------

   CUMULATIVE VOLUMES               L**3   RATES FOR THIS TIME STEP           L**3/T
   ------------------                      ------------------------

                                     IN                                         IN
                                     --                                         --
        PRECIPITATION =                            PRECIPITATION =                  
           STREAMFLOW =                               STREAMFLOW =                  
     GW BOUNDARY FLOW =                         GW BOUNDARY FLOW =                  


                                    OUT                                        OUT
                                    ---                                        ---
   EVAPOTRANSPIRATION =          56645.65     EVAPOTRANSPIRATION =           9328.39
           STREAMFLOW =          42957.50             STREAMFLOW =           6065.76
     GW BOUNDARY FLOW =           4541.44       GW BOUNDARY FLOW =            648.70

   INFLOWS - OUTFLOWS =        -104144.59     INFLOWS - OUTFLOWS =         -16042.85
             --------                                   --------

 TOTAL STORAGE CHANGE =        -103748.98         STORAGE CHANGE =         -15982.26
       --------------                             --------------
         LAND SURFACE =                             LAND SURFACE =                  
            SOIL ZONE =          53870.33              SOIL ZONE =           6367.92
     UNSATURATED ZONE =        -144779.04       UNSATURATED ZONE =         -20361.32
       SATURATED ZONE =         -12840.27         SATURATED ZONE =          -1988.86

 OVERALL BUDGET ERROR =           -395.61           BUDGET ERROR =            -60.59


  PERCENT DISCREPANCY =             -0.38    PERCENT DISCREPANCY =             -0.38



1
 SUMMARY VOLUMETRIC BUDGET FOR GSFLOW 
 DATE: 10 14 1980              CUMULATIVE TIME STEP:      14
 MODFLOW STRESS PERIOD      2     CURRENT TIME STEP:      14     ITERATIONS:       6

 -----------------------------------------------------------------------------------

   CUMULATIVE VOLUMES               L**3   RATES FOR THIS TIME STEP           L**3/T
   ------------------                      ------------------------

                                     IN                                         IN
                                     --                                         --
        PRECIPITATION =         650779.83          PRECIPITATION =         164754.40
           STREAMFLOW =                               STREAMFLOW =                  
     GW BOUNDARY FLOW =                         GW BOUNDARY FLOW =                  


                                    OUT                                        OUT
                                    ---                                        ---
   EVAPOTRANSPIRATION =         149772.38     EVAPOTRANSPIRATION =          10634.04
           STREAMFLOW =          94400.61             STREAMFLOW =           7692.02
     GW BOUNDARY FLOW =           9082.95       GW BOUNDARY FLOW =            648.93

   INFLOWS - OUTFLOWS =         397523.90     INFLOWS - OUTFLOWS =         145779.40
             --------                                   --------

 TOTAL STORAGE CHANGE =         398361.56         STORAGE CHANGE =         145840.77
       --------------                             --------------
         LAND SURFACE =         183750.31           LAND SURFACE =         130549.56
            SOIL ZONE =         526684.53              SOIL ZONE =          37323.57
     UNSATURATED ZONE =        -284495.96       UNSATURATED ZONE =         -19624.72
       SATURATED ZONE =         -27577.32         SATURATED ZONE =          -2407.64

 OVERALL BUDGET ERROR =           -837.66           BUDGET ERROR =            -61.38


  PERCENT DISCREPANCY =             -0.13    PERCENT DISCREPANCY =             -0.04



1
 SUMMARY VOLUMETRIC BUDGET FOR GSFLOW 
 DATE: 10 21 1980              CUMULATIVE TIME STEP:      21
 MODFLOW STRESS PERIOD      2     CURRENT TIME STEP:      21     ITERATIONS:       6

 -----------------------------------------------------------------------------------

   CUMULATIVE VOLUMES               L**3   RATES FOR THIS TIME STEP           L**3/T
   ------------------                      ------------------------

                                     IN                                         IN
                                     --                                         --
        PRECIPITATION =         733157.03          PRECIPITATION =                  
           STREAMFLOW =                               STREAMFLOW =                  
     GW BOUNDARY FLOW =                         GW BOUNDARY FLOW =                  


                                    OUT                                        OUT
                                    ---                                        ---
   EVAPOTRANSPIRATION =         365535.48     EVAPOTRANSPIRATION =          29912.87
           STREAMFLOW =         145431.48             STREAMFLOW =           6880.60
     GW BOUNDARY FLOW =          13624.67       GW BOUNDARY FLOW =            648.73

   INFLOWS - OUTFLOWS =         208565.41     INFLOWS - OUTFLOWS =         -37442.21
             --------                                   --------

 TOTAL STORAGE CHANGE =         209851.76         STORAGE CHANGE =         -37372.93
       --------------                             --------------
         LAND SURFACE =                             LAND SURFACE =                  
            SOIL ZONE =         675060.64              SOIL ZONE =         -15518.36
     UNSATURATED ZONE =        -418656.49       UNSATURATED ZONE =         -18827.11
       SATURATED ZONE =         -46552.38         SATURATED ZONE =          -3027.46

 OVERALL BUDGET ERROR =          -1286.36           BUDGET ERROR =            -69.27


  PERCENT DISCREPANCY =             -0.18    PERCENT DISCREPANCY =             -0.19



1
 SUMMARY VOLUMETRIC BUDGET FOR GSFLOW 
 DATE: 10 28 1980              CUMULATIVE TIME STEP:      28
 MODFLOW STRESS PERIOD      2     CURRENT TIME STEP:      28     ITERATIONS:       6

 -----------------------------------------------------------------------------------

   CUMULATIVE VOLUMES               L**3   RATES FOR THIS TIME STEP           L**3/T
   ------------------                      ------------------------

                                     IN                                         IN
                                     --                                         --
        PRECIPITATION =        1070903.53          PRECIPITATION =                  
           STREAMFLOW =                               STREAMFLOW =                  
     GW BOUNDARY FLOW =                         GW BOUNDARY FLOW =                  


                                    OUT                                        OUT
                                    ---                                        ---
   EVAPOTRANSPIRATION =         541797.07     EVAPOTRANSPIRATION =          24800.27
           STREAMFLOW =         199722.37             STREAMFLOW =           7876.16
     GW BOUNDARY FLOW =          18165.89       GW BOUNDARY FLOW =            648.79

   INFLOWS - OUTFLOWS =         311218.19     INFLOWS - OUTFLOWS =         -33325.22
             --------                                   --------

 TOTAL STORAGE CHANGE =         313011.18         STORAGE CHANGE =         -33250.77
       --------------                             --------------
         LAND SURFACE =          20571.53           LAND SURFACE =         -29890.85
            SOIL ZONE =         908876.86              SOIL ZONE =          18133.13
     UNSATURATED ZONE =        -547246.27       UNSATURATED ZONE =         -17992.49
       SATURATED ZONE =         -69190.94         SATURATED ZONE =          -3500.55

 OVERALL BUDGET ERROR =          -1792.99           BUDGET ERROR =            -74.46


  PERCENT DISCREPANCY =             -0.17    PERCENT DISCREPANCY =             -0.22



1
 SUMMARY VOLUMETRIC BUDGET FOR GSFLOW 
 DATE: 11 04 1980              CUMULATIVE TIME STEP:      35
 MODFLOW STRESS PERIOD      2     CURRENT TIME STEP:      35     ITERATIONS:       6

 -----------------------------------------------------------------------------------

   CUMULATIVE VOLUMES               L**3   RATES FOR THIS TIME STEP           L**3/T
   ------------------                      ------------------------

                                     IN                                         IN
                                     --                                         --
        PRECIPITATION =        1070903.53          PRECIPITATION =                  
           STREAMFLOW =                               STREAMFLOW =                  
     GW BOUNDARY FLOW =                         GW BOUNDARY FLOW =                  


                                    OUT                                        OUT
                                    ---                                        ---
   EVAPOTRANSPIRATION =         830659.16     EVAPOTRANSPIRATION =          39690.88
           STREAMFLOW =         251801.82             STREAMFLOW =           7032.46
     GW BOUNDARY FLOW =          22706.82       GW BOUNDARY FLOW =            648.64

   INFLOWS - OUTFLOWS =         -34264.27     INFLOWS - OUTFLOWS =         -47371.98
             --------                                   --------

 TOTAL STORAGE CHANGE =         -31915.73         STORAGE CHANGE =         -47290.09
       --------------                             --------------
         LAND SURFACE =                             LAND SURFACE =                  
            SOIL ZONE =         735100.47              SOIL ZONE =         -25784.61
     UNSATURATED ZONE =        -670729.36       UNSATURATED ZONE =         -17376.22
       SATURATED ZONE =         -96286.85         SATURATED ZONE =          -4129.27

 OVERALL BUDGET ERROR =          -2348.55           BUDGET ERROR =            -81.89


  PERCENT DISCREPANCY =             -0.21    PERCENT DISCREPANCY =             -0.17



1
 SUMMARY VOLUMETRIC BUDGET FOR GSFLOW 
 DATE: 11 11 1980              CUMULATIVE TIME STEP:      42
 MODFLOW STRESS PERIOD      2     CURRENT TIME STEP:      42     ITERATIONS:       7

 -----------------------------------------------------------------------------------

   CUMULATIVE VOLUMES               L**3   RATES FOR THIS TIME STEP           L**3/T
   ------------------                      ------------------------

                                     IN                                         IN
                                     --                                         --
        PRECIPITATION =        1573762.54          PRECIPITATION =         255182.19
           STREAMFLOW =                               STREAMFLOW =                  
     GW BOUNDARY FLOW =                         GW BOUNDARY FLOW =                  


                                    OUT                                        OUT
                                    ---                                        ---
   EVAPOTRANSPIRATION =        1026093.44     EVAPOTRANSPIRATION =          15850.53
           STREAMFLOW =         308234.32             STREAMFLOW =          10780.40
     GW BOUNDARY FLOW =          27247.60       GW BOUNDARY FLOW =            648.85

   INFLOWS - OUTFLOWS =         212187.19     INFLOWS - OUTFLOWS =         227902.41
             --------                                   --------

 TOTAL STORAGE CHANGE =         215055.42         STORAGE CHANGE =         227959.77
       --------------                             --------------
         LAND SURFACE =          76960.22           LAND SURFACE =          76747.38
            SOIL ZONE =        1053483.33              SOIL ZONE =         171835.69
     UNSATURATED ZONE =        -789236.14       UNSATURATED ZONE =         -16532.83
       SATURATED ZONE =        -126151.99         SATURATED ZONE =          -4090.46

 OVERALL BUDGET ERROR =          -2868.23           BUDGET ERROR =            -57.37


  PERCENT DISCREPANCY =             -0.18    PERCENT DISCREPANCY =             -0.02



1
 SUMMARY VOLUMETRIC BUDGET FOR GSFLOW 
 DATE: 11 18 1980              CUMULATIVE TIME STEP:      49
 MODFLOW STRESS PERIOD      2     CURRENT TIME STEP:      49     ITERATIONS:       6

 -----------------------------------------------------------------------------------

   CUMULATIVE VOLUMES               L**3   RATES FOR THIS TIME STEP           L**3/T
   ------------------                      ------------------------

                                     IN                                         IN
                                     --                                         --
        PRECIPITATION =        1573762.54          PRECIPITATION =                  
           STREAMFLOW =                               STREAMFLOW =                  
     GW BOUNDARY FLOW =                         GW BOUNDARY FLOW =                  


                                    OUT                                        OUT
                                    ---                                        ---
   EVAPOTRANSPIRATION =        1115259.45     EVAPOTRANSPIRATION =          15086.51
           STREAMFLOW =         370848.49             STREAMFLOW =           9281.26
     GW BOUNDARY FLOW =          31789.47       GW BOUNDARY FLOW =            648.86

   INFLOWS - OUTFLOWS =          55865.13     INFLOWS - OUTFLOWS =         -25016.62
             --------                                   --------

 TOTAL STORAGE CHANGE =          59335.53         STORAGE CHANGE =         -24926.24
       --------------                             --------------
         LAND SURFACE =           8139.47           LAND SURFACE =          -4965.50
            SOIL ZONE =        1113135.94              SOIL ZONE =            889.08
     UNSATURATED ZONE =        -903170.60       UNSATURATED ZONE =         -16043.30
       SATURATED ZONE =        -158769.28         SATURATED ZONE =          -4806.52

 OVERALL BUDGET ERROR =          -3470.40           BUDGET ERROR =            -90.38


  PERCENT DISCREPANCY =             -0.22    PERCENT DISCREPANCY =             -0.36



1
 SUMMARY VOLUMETRIC BUDGET FOR GSFLOW 
 DATE: 11 25 1980              CUMULATIVE TIME STEP:      56
 MODFLOW STRESS PERIOD      2     CURRENT TIME STEP:      56     ITERATIONS:       7

 -----------------------------------------------------------------------------------

   CUMULATIVE VOLUMES               L**3   RATES FOR THIS TIME STEP           L**3/T
   ------------------                      ------------------------

                                     IN                                         IN
                                     --                                         --
        PRECIPITATION =        1648816.13          PRECIPITATION =                  
           STREAMFLOW =                               STREAMFLOW =                  
     GW BOUNDARY FLOW =                         GW BOUNDARY FLOW =                  


                                    OUT                                        OUT
                                    ---                                        ---
   EVAPOTRANSPIRATION =        1192597.25     EVAPOTRANSPIRATION =           9313.74
           STREAMFLOW =         437952.54             STREAMFLOW =           9958.77
     GW BOUNDARY FLOW =          36331.73       GW BOUNDARY FLOW =            648.93

   INFLOWS - OUTFLOWS =         -18065.39     INFLOWS - OUTFLOWS =         -19921.44
             --------                                   --------

 TOTAL STORAGE CHANGE =         -13978.98         STORAGE CHANGE =         -19855.82
       --------------                             --------------
         LAND SURFACE =          54136.41           LAND SURFACE =          -9258.02
            SOIL ZONE =        1139411.90              SOIL ZONE =          10134.52
     UNSATURATED ZONE =       -1012944.52       UNSATURATED ZONE =         -15418.87
       SATURATED ZONE =        -194582.76         SATURATED ZONE =          -5313.46

 OVERALL BUDGET ERROR =          -4086.42           BUDGET ERROR =            -65.62


  PERCENT DISCREPANCY =             -0.25    PERCENT DISCREPANCY =             -0.33



1
 SUMMARY VOLUMETRIC BUDGET FOR GSFLOW 
 DATE: 12 02 1980              CUMULATIVE TIME STEP:      63
 MODFLOW STRESS PERIOD      2     CURRENT TIME STEP:      63     ITERATIONS:       7

 -----------------------------------------------------------------------------------

   CUMULATIVE VOLUMES               L**3   RATES FOR THIS TIME STEP           L**3/T
   ------------------                      ------------------------

                                     IN                                         IN
                                     --                                         --
        PRECIPITATION =        2076621.55          PRECIPITATION =                  
           STREAMFLOW =                               STREAMFLOW =                  
     GW BOUNDARY FLOW =                         GW BOUNDARY FLOW =                  


                                    OUT                                        OUT
                                    ---                                        ---
   EVAPOTRANSPIRATION =        1380072.25     EVAPOTRANSPIRATION =          34142.11
           STREAMFLOW =         522707.90             STREAMFLOW =          15252.30
     GW BOUNDARY FLOW =          40875.65       GW BOUNDARY FLOW =            649.44

   INFLOWS - OUTFLOWS =         132965.75     INFLOWS - OUTFLOWS =         -50043.85
             --------                                   --------

 TOTAL STORAGE CHANGE =         137599.79         STORAGE CHANGE =         -49987.66
       --------------                             --------------
         LAND SURFACE =         157031.20           LAND SURFACE =         -76789.76
            SOIL ZONE =        1325416.69              SOIL ZONE =          44270.52
     UNSATURATED ZONE =       -1114478.98       UNSATURATED ZONE =         -12888.49
       SATURATED ZONE =        -230369.12         SATURATED ZONE =          -4579.93

 OVERALL BUDGET ERROR =          -4634.04           BUDGET ERROR =            -56.18


  PERCENT DISCREPANCY =             -0.22    PERCENT DISCREPANCY =             -0.11



1
 SUMMARY VOLUMETRIC BUDGET FOR GSFLOW 
 DATE: 12 09 1980              CUMULATIVE TIME STEP:      70
 MODFLOW STRESS PERIOD      2     CURRENT TIME STEP:      70     ITERATIONS:       7

 -----------------------------------------------------------------------------------

   CUMULATIVE VOLUMES               L**3   RATES FOR THIS TIME STEP           L**3/T
   ------------------                      ------------------------

                                     IN                                         IN
                                     --                                         --
        PRECIPITATION =        4284363.63          PRECIPITATION =                  
           STREAMFLOW =                               STREAMFLOW =                  
     GW BOUNDARY FLOW =                         GW BOUNDARY FLOW =                  


                                    OUT                                        OUT
                                    ---                                        ---
   EVAPOTRANSPIRATION =        1405711.02     EVAPOTRANSPIRATION =           3258.35
           STREAMFLOW =         621842.66             STREAMFLOW =          14452.43
     GW BOUNDARY FLOW =          45422.50       GW BOUNDARY FLOW =            649.64

   INFLOWS - OUTFLOWS =        2211387.45     INFLOWS - OUTFLOWS =         -18360.43
             --------                                   --------

 TOTAL STORAGE CHANGE =        2216513.20         STORAGE CHANGE =         -18296.05
       --------------                             --------------
         LAND SURFACE =        2337504.39           LAND SURFACE =          -3258.35
            SOIL ZONE =        1361031.57              SOIL ZONE =           5169.70
     UNSATURATED ZONE =       -1212613.01       UNSATURATED ZONE =         -14229.22
       SATURATED ZONE =        -269409.75         SATURATED ZONE =          -5978.18

 OVERALL BUDGET ERROR =          -5125.75           BUDGET ERROR =            -64.38


  PERCENT DISCREPANCY =             -0.12    PERCENT DISCREPANCY =             -0.35



1
 SUMMARY VOLUMETRIC BUDGET FOR GSFLOW 
 DATE: 12 16 1980              CUMULATIVE TIME STEP:      77
 MODFLOW STRESS PERIOD      2     CURRENT TIME STEP:      77     ITERATIONS:       7

 -----------------------------------------------------------------------------------

   CUMULATIVE VOLUMES               L**3   RATES FOR THIS TIME STEP           L**3/T
   ------------------                      ------------------------

                                     IN                                         IN
                                     --                                         --
        PRECIPITATION =        4284363.63          PRECIPITATION =                  
           STREAMFLOW =                               STREAMFLOW =                  
     GW BOUNDARY FLOW =                         GW BOUNDARY FLOW =                  


                                    OUT                                        OUT
                                    ---                                        ---
   EVAPOTRANSPIRATION =        1550342.56     EVAPOTRANSPIRATION =          34482.61
           STREAMFLOW =         741738.88             STREAMFLOW =          24900.34
     GW BOUNDARY FLOW =          49971.09       GW BOUNDARY FLOW =            650.24

   INFLOWS - OUTFLOWS =        1942311.10     INFLOWS - OUTFLOWS =         -60033.19
             --------                                   --------

 TOTAL STORAGE CHANGE =        1947883.14         STORAGE CHANGE =         -59970.09
       --------------                             --------------
         LAND SURFACE =        2017009.25           LAND SURFACE =        -133032.47
            SOIL ZONE =        1543058.00              SOIL ZONE =          86549.40
     UNSATURATED ZONE =       -1302421.44       UNSATURATED ZONE =          -9047.22
       SATURATED ZONE =        -309762.68         SATURATED ZONE =          -4439.80

 OVERALL BUDGET ERROR =          -5572.04           BUDGET ERROR =            -63.11


  PERCENT DISCREPANCY =             -0.13    PERCENT DISCREPANCY =             -0.11



1
 SUMMARY VOLUMETRIC BUDGET FOR GSFLOW 
 DATE: 12 23 1980              CUMULATIVE TIME STEP:      84
 MODFLOW STRESS PERIOD      2     CURRENT TIME STEP:      84     ITERATIONS:       9

 -----------------------------------------------------------------------------------

   CUMULATIVE VOLUMES               L**3   RATES FOR THIS TIME STEP           L**3/T
   ------------------                      ------------------------

                                     IN                                         IN
                                     --                                         --
        PRECIPITATION =        4516757.54          PRECIPITATION =                  
           STREAMFLOW =                               STREAMFLOW =                  
     GW BOUNDARY FLOW =                         GW BOUNDARY FLOW =                  


                                    OUT                                        OUT
                                    ---                                        ---
   EVAPOTRANSPIRATION =        1758580.38     EVAPOTRANSPIRATION =          35848.50
           STREAMFLOW =         971624.65             STREAMFLOW =          30877.95
     GW BOUNDARY FLOW =          54531.62       GW BOUNDARY FLOW =            651.97

   INFLOWS - OUTFLOWS =        1732020.89     INFLOWS - OUTFLOWS =         -67378.41
             --------                                   --------

 TOTAL STORAGE CHANGE =        1737856.91         STORAGE CHANGE =         -67347.59
       --------------                             --------------
         LAND SURFACE =        1391476.45           LAND SURFACE =         -50626.27
            SOIL ZONE =        2025880.82              SOIL ZONE =          -6764.39
     UNSATURATED ZONE =       -1342055.89       UNSATURATED ZONE =          -5457.67
       SATURATED ZONE =        -337444.47         SATURATED ZONE =          -4499.26

 OVERALL BUDGET ERROR =          -5836.02           BUDGET ERROR =            -30.83


  PERCENT DISCREPANCY =             -0.13    PERCENT DISCREPANCY =             -0.05



1
 SUMMARY VOLUMETRIC BUDGET FOR GSFLOW 
 DATE: 12 30 1980              CUMULATIVE TIME STEP:      91
 MODFLOW STRESS PERIOD      2     CURRENT TIME STEP:      91     ITERATIONS:      10

 -----------------------------------------------------------------------------------

   CUMULATIVE VOLUMES               L**3   RATES FOR THIS TIME STEP           L**3/T
   ------------------                      ------------------------

                                     IN                                         IN
                                     --                                         --
        PRECIPITATION =        4516757.54          PRECIPITATION =                  
           STREAMFLOW =                               STREAMFLOW =                  
     GW BOUNDARY FLOW =                         GW BOUNDARY FLOW =                  


                                    OUT                                        OUT
                                    ---                                        ---
   EVAPOTRANSPIRATION =        2126302.63     EVAPOTRANSPIRATION =          47015.27
           STREAMFLOW =        1221859.78             STREAMFLOW =          27833.66
     GW BOUNDARY FLOW =          59098.77       GW BOUNDARY FLOW =            652.43

   INFLOWS - OUTFLOWS =        1109496.35     INFLOWS - OUTFLOWS =         -75501.37
             --------                                   --------

 TOTAL STORAGE CHANGE =        1115462.48         STORAGE CHANGE =         -75487.57
       --------------                             --------------
         LAND SURFACE =         579625.21           LAND SURFACE =         -42433.18
            SOIL ZONE =        2245031.62              SOIL ZONE =         -24950.95
     UNSATURATED ZONE =       -1347460.61       UNSATURATED ZONE =          -4038.65
       SATURATED ZONE =        -361733.75         SATURATED ZONE =          -4064.79

 OVERALL BUDGET ERROR =          -5966.13           BUDGET ERROR =            -13.80


  PERCENT DISCREPANCY =             -0.13    PERCENT DISCREPANCY =             -0.02



1
 SUMMARY VOLUMETRIC BUDGET FOR GSFLOW 
 DATE: 01 06 1981              CUMULATIVE TIME STEP:      98
 MODFLOW STRESS PERIOD      2     CURRENT TIME STEP:      98     ITERATIONS:       8

 -----------------------------------------------------------------------------------

   CUMULATIVE VOLUMES               L**3   RATES FOR THIS TIME STEP           L**3/T
   ------------------                      ------------------------

                                     IN                                         IN
                                     --                                         --
        PRECIPITATION =        5004445.43          PRECIPITATION =                  
           STREAMFLOW =                               STREAMFLOW =                  
     GW BOUNDARY FLOW =                         GW BOUNDARY FLOW =                  


                                    OUT                                        OUT
                                    ---                                        ---
   EVAPOTRANSPIRATION =        2343989.80     EVAPOTRANSPIRATION =          18975.60
           STREAMFLOW =        1371479.73             STREAMFLOW =          20179.28
     GW BOUNDARY FLOW =          63660.18       GW BOUNDARY FLOW =            651.16

   INFLOWS - OUTFLOWS =        1225315.73     INFLOWS - OUTFLOWS =         -39806.04
             --------                                   --------

 TOTAL STORAGE CHANGE =        1231432.69         STORAGE CHANGE =         -39772.57
       --------------                             --------------
         LAND SURFACE =         840075.39           LAND SURFACE =         -25549.72
            SOIL ZONE =        2209835.43              SOIL ZONE =           3406.11
     UNSATURATED ZONE =       -1418381.27       UNSATURATED ZONE =         -11722.45
       SATURATED ZONE =        -400096.87         SATURATED ZONE =          -5906.52

 OVERALL BUDGET ERROR =          -6116.96           BUDGET ERROR =            -33.47


  PERCENT DISCREPANCY =             -0.12    PERCENT DISCREPANCY =             -0.08



1
 SUMMARY VOLUMETRIC BUDGET FOR GSFLOW 
 DATE: 01 13 1981              CUMULATIVE TIME STEP:     105
 MODFLOW STRESS PERIOD      2     CURRENT TIME STEP:     105     ITERATIONS:       8

 -----------------------------------------------------------------------------------

   CUMULATIVE VOLUMES               L**3   RATES FOR THIS TIME STEP           L**3/T
   ------------------                      ------------------------

                                     IN                                         IN
                                     --                                         --
        PRECIPITATION =        5004445.43          PRECIPITATION =                  
           STREAMFLOW =                               STREAMFLOW =                  
     GW BOUNDARY FLOW =                         GW BOUNDARY FLOW =                  


                                    OUT                                        OUT
                                    ---                                        ---
   EVAPOTRANSPIRATION =        2545735.92     EVAPOTRANSPIRATION =          41907.78
           STREAMFLOW =        1516728.93             STREAMFLOW =          20291.34
     GW BOUNDARY FLOW =          68216.97       GW BOUNDARY FLOW =            650.84

   INFLOWS - OUTFLOWS =         873763.61     INFLOWS - OUTFLOWS =         -62849.95
             --------                                   --------

 TOTAL STORAGE CHANGE =         880191.35         STORAGE CHANGE =         -62817.75
       --------------                             --------------
         LAND SURFACE =         624161.64           LAND SURFACE =         -38673.92
            SOIL ZONE =        2189415.21              SOIL ZONE =          -8307.12
     UNSATURATED ZONE =       -1489020.26       UNSATURATED ZONE =          -9267.41
       SATURATED ZONE =        -444365.25         SATURATED ZONE =          -6569.30

 OVERALL BUDGET ERROR =          -6427.73           BUDGET ERROR =            -32.21


  PERCENT DISCREPANCY =             -0.13    PERCENT DISCREPANCY =             -0.05



1
 SUMMARY VOLUMETRIC BUDGET FOR GSFLOW 
 DATE: 01 20 1981              CUMULATIVE TIME STEP:     112
 MODFLOW STRESS PERIOD      2     CURRENT TIME STEP:     112     ITERATIONS:       8

 -----------------------------------------------------------------------------------

   CUMULATIVE VOLUMES               L**3   RATES FOR THIS TIME STEP           L**3/T
   ------------------                      ------------------------

                                     IN                                         IN
                                     --                                         --
        PRECIPITATION =        5170466.84          PRECIPITATION =          41505.35
           STREAMFLOW =                               STREAMFLOW =                  
     GW BOUNDARY FLOW =                         GW BOUNDARY FLOW =                  


                                    OUT                                        OUT
                                    ---                                        ---
   EVAPOTRANSPIRATION =        2810648.28     EVAPOTRANSPIRATION =          30808.36
           STREAMFLOW =        1658012.28             STREAMFLOW =          19994.62
     GW BOUNDARY FLOW =          72771.81       GW BOUNDARY FLOW =            650.64

   INFLOWS - OUTFLOWS =         629034.46     INFLOWS - OUTFLOWS =          -9948.27
             --------                                   --------

 TOTAL STORAGE CHANGE =         635765.59         STORAGE CHANGE =          -9920.62
       --------------                             --------------
         LAND SURFACE =         464145.88           LAND SURFACE =           8501.89
            SOIL ZONE =        2184785.44              SOIL ZONE =          -8932.38
     UNSATURATED ZONE =       -1524028.71       UNSATURATED ZONE =          -2783.79
       SATURATED ZONE =        -489137.04         SATURATED ZONE =          -6706.34

 OVERALL BUDGET ERROR =          -6731.13           BUDGET ERROR =            -27.65


  PERCENT DISCREPANCY =             -0.13    PERCENT DISCREPANCY =             -0.05



1
 SUMMARY VOLUMETRIC BUDGET FOR GSFLOW 
 DATE: 01 27 1981              CUMULATIVE TIME STEP:     119
 MODFLOW STRESS PERIOD      2     CURRENT TIME STEP:     119     ITERATIONS:       8

 -----------------------------------------------------------------------------------

   CUMULATIVE VOLUMES               L**3   RATES FOR THIS TIME STEP           L**3/T
   ------------------                      ------------------------

                                     IN                                         IN
                                     --                                         --
        PRECIPITATION =        8646540.08          PRECIPITATION =        2936503.63
           STREAMFLOW =                               STREAMFLOW =                  
     GW BOUNDARY FLOW =                         GW BOUNDARY FLOW =                  


                                    OUT                                        OUT
                                    ---                                        ---
   EVAPOTRANSPIRATION =        3033602.61     EVAPOTRANSPIRATION =          12639.57
           STREAMFLOW =        1801637.30             STREAMFLOW =          18566.97
     GW BOUNDARY FLOW =          77326.01       GW BOUNDARY FLOW =            650.42

   INFLOWS - OUTFLOWS =        3733974.15     INFLOWS - OUTFLOWS =        2904646.67
             --------                                   --------

 TOTAL STORAGE CHANGE =        3740849.57         STORAGE CHANGE =        2904671.10
       --------------                             --------------
         LAND SURFACE =        3592460.11           LAND SURFACE =        2923864.12
            SOIL ZONE =        2205341.25              SOIL ZONE =          -6095.10
     UNSATURATED ZONE =       -1521670.50       UNSATURATED ZONE =          -6114.65
       SATURATED ZONE =        -535281.30         SATURATED ZONE =          -6983.28

 OVERALL BUDGET ERROR =          -6875.42           BUDGET ERROR =            -24.43


  PERCENT DISCREPANCY =             -0.08    PERCENT DISCREPANCY =             -0.00



1
 SUMMARY VOLUMETRIC BUDGET FOR GSFLOW 
 DATE: 02 03 1981              CUMULATIVE TIME STEP:     126
 MODFLOW STRESS PERIOD      2     CURRENT TIME STEP:     126     ITERATIONS:       8

 -----------------------------------------------------------------------------------

   CUMULATIVE VOLUMES               L**3   RATES FOR THIS TIME STEP           L**3/T
   ------------------                      ------------------------

                                     IN                                         IN
                                     --                                         --
        PRECIPITATION =        1.1739D+07          PRECIPITATION =                  
           STREAMFLOW =                               STREAMFLOW =                  
     GW BOUNDARY FLOW =                         GW BOUNDARY FLOW =                  


                                    OUT                                        OUT
                                    ---                                        ---
   EVAPOTRANSPIRATION =        3068793.98     EVAPOTRANSPIRATION =           7106.06
           STREAMFLOW =        1928254.41             STREAMFLOW =          18003.10
     GW BOUNDARY FLOW =          81878.10       GW BOUNDARY FLOW =            650.25

   INFLOWS - OUTFLOWS =        6659762.28     INFLOWS - OUTFLOWS =         -25759.41
             --------                                   --------

 TOTAL STORAGE CHANGE =        6666832.03         STORAGE CHANGE =         -25726.66
       --------------                             --------------
         LAND SURFACE =        6649417.45           LAND SURFACE =          -7106.06
            SOIL ZONE =        2197782.24              SOIL ZONE =            521.42
     UNSATURATED ZONE =       -1593298.86       UNSATURATED ZONE =         -11432.92
       SATURATED ZONE =        -587068.81         SATURATED ZONE =          -7709.10

 OVERALL BUDGET ERROR =          -7069.75           BUDGET ERROR =            -32.75


  PERCENT DISCREPANCY =             -0.06    PERCENT DISCREPANCY =             -0.13



1
 SUMMARY VOLUMETRIC BUDGET FOR GSFLOW 
 DATE: 02 10 1981              CUMULATIVE TIME STEP:     133
 MODFLOW STRESS PERIOD      2     CURRENT TIME STEP:     133     ITERATIONS:       7

 -----------------------------------------------------------------------------------

   CUMULATIVE VOLUMES               L**3   RATES FOR THIS TIME STEP           L**3/T
   ------------------                      ------------------------

                                     IN                                         IN
                                     --                                         --
        PRECIPITATION =        1.1838D+07          PRECIPITATION =                  
           STREAMFLOW =                               STREAMFLOW =                  
     GW BOUNDARY FLOW =                         GW BOUNDARY FLOW =                  


                                    OUT                                        OUT
                                    ---                                        ---
   EVAPOTRANSPIRATION =        3189897.49     EVAPOTRANSPIRATION =          32343.27
           STREAMFLOW =        2054544.25             STREAMFLOW =          18069.51
     GW BOUNDARY FLOW =          86429.89       GW BOUNDARY FLOW =            650.25

   INFLOWS - OUTFLOWS =        6507381.65     INFLOWS - OUTFLOWS =         -51063.02
             --------                                   --------

 TOTAL STORAGE CHANGE =        6514741.91         STORAGE CHANGE =         -51004.38
       --------------                             --------------
         LAND SURFACE =        6627878.44           LAND SURFACE =         -32343.27
            SOIL ZONE =        2201771.24              SOIL ZONE =            481.86
     UNSATURATED ZONE =       -1670929.32       UNSATURATED ZONE =         -10737.90
       SATURATED ZONE =        -643978.45         SATURATED ZONE =          -8405.08

 OVERALL BUDGET ERROR =          -7360.26           BUDGET ERROR =            -58.64


  PERCENT DISCREPANCY =             -0.06    PERCENT DISCREPANCY =             -0.11



1
 SUMMARY VOLUMETRIC BUDGET FOR GSFLOW 
 DATE: 02 17 1981              CUMULATIVE TIME STEP:     140
 MODFLOW STRESS PERIOD      2     CURRENT TIME STEP:     140     ITERATIONS:      14

 -----------------------------------------------------------------------------------

   CUMULATIVE VOLUMES               L**3   RATES FOR THIS TIME STEP           L**3/T
   ------------------                      ------------------------

                                     IN                                         IN
                                     --                                         --
        PRECIPITATION =        1.2765D+07          PRECIPITATION =          68929.28
           STREAMFLOW =                               STREAMFLOW =                  
     GW BOUNDARY FLOW =                         GW BOUNDARY FLOW =                  


                                    OUT                                        OUT
                                    ---                                        ---
   EVAPOTRANSPIRATION =        3515664.38     EVAPOTRANSPIRATION =          59831.41
           STREAMFLOW =        2567877.40             STREAMFLOW =         119947.60
     GW BOUNDARY FLOW =          91002.45       GW BOUNDARY FLOW =            656.58

   INFLOWS - OUTFLOWS =        6590424.88     INFLOWS - OUTFLOWS =        -111506.32
             --------                                   --------

 TOTAL STORAGE CHANGE =        6598007.40         STORAGE CHANGE =        -111508.37
       --------------                             --------------
         LAND SURFACE =        5733342.74           LAND SURFACE =        -263707.47
            SOIL ZONE =        2970457.56              SOIL ZONE =          74471.73
     UNSATURATED ZONE =       -1442286.35       UNSATURATED ZONE =          75759.24
       SATURATED ZONE =        -663506.55         SATURATED ZONE =           1968.13

 OVERALL BUDGET ERROR =          -7582.52           BUDGET ERROR =              2.05


  PERCENT DISCREPANCY =             -0.06    PERCENT DISCREPANCY =              0.00



1
 SUMMARY VOLUMETRIC BUDGET FOR GSFLOW 
 DATE: 02 24 1981              CUMULATIVE TIME STEP:     147
 MODFLOW STRESS PERIOD      2     CURRENT TIME STEP:     147     ITERATIONS:      13

 -----------------------------------------------------------------------------------

   CUMULATIVE VOLUMES               L**3   RATES FOR THIS TIME STEP           L**3/T
   ------------------                      ------------------------

                                     IN                                         IN
                                     --                                         --
        PRECIPITATION =        1.3179D+07          PRECIPITATION =         344646.37
           STREAMFLOW =                               STREAMFLOW =                  
     GW BOUNDARY FLOW =                         GW BOUNDARY FLOW =                  


                                    OUT                                        OUT
                                    ---                                        ---
   EVAPOTRANSPIRATION =        3848040.48     EVAPOTRANSPIRATION =          18156.56
           STREAMFLOW =        3119484.56             STREAMFLOW =          50173.84
     GW BOUNDARY FLOW =          95594.86       GW BOUNDARY FLOW =            655.06

   INFLOWS - OUTFLOWS =        6115424.85     INFLOWS - OUTFLOWS =         275660.91
             --------                                   --------

 TOTAL STORAGE CHANGE =        6122908.48         STORAGE CHANGE =         275643.17
       --------------                             --------------
         LAND SURFACE =        5134001.56           LAND SURFACE =         302140.01
            SOIL ZONE =        2719068.71              SOIL ZONE =         -55901.07
     UNSATURATED ZONE =       -1087701.48       UNSATURATED ZONE =          27336.57
       SATURATED ZONE =        -642460.31         SATURATED ZONE =           2067.66

 OVERALL BUDGET ERROR =          -7483.63           BUDGET ERROR =             17.73


  PERCENT DISCREPANCY =             -0.06    PERCENT DISCREPANCY =              0.01



1
 SUMMARY VOLUMETRIC BUDGET FOR GSFLOW 
 DATE: 03 03 1981              CUMULATIVE TIME STEP:     154
 MODFLOW STRESS PERIOD      2     CURRENT TIME STEP:     154     ITERATIONS:      12

 -----------------------------------------------------------------------------------

   CUMULATIVE VOLUMES               L**3   RATES FOR THIS TIME STEP           L**3/T
   ------------------                      ------------------------

                                     IN                                         IN
                                     --                                         --
        PRECIPITATION =        1.3447D+07          PRECIPITATION =                  
           STREAMFLOW =                               STREAMFLOW =                  
     GW BOUNDARY FLOW =                         GW BOUNDARY FLOW =                  


                                    OUT                                        OUT
                                    ---                                        ---
   EVAPOTRANSPIRATION =        3994826.44     EVAPOTRANSPIRATION =          40644.00
           STREAMFLOW =        3340515.72             STREAMFLOW =          27133.57
     GW BOUNDARY FLOW =         100167.46       GW BOUNDARY FLOW =            652.27

   INFLOWS - OUTFLOWS =        6011093.43     INFLOWS - OUTFLOWS =         -68429.84
             --------                                   --------

 TOTAL STORAGE CHANGE =        6018400.09         STORAGE CHANGE =         -68455.80
       --------------                             --------------
         LAND SURFACE =        5236571.47           LAND SURFACE =         -57449.18
            SOIL ZONE =        2512522.57              SOIL ZONE =            370.90
     UNSATURATED ZONE =       -1081684.89       UNSATURATED ZONE =          -8825.42
       SATURATED ZONE =        -649009.06         SATURATED ZONE =          -2552.10

 OVERALL BUDGET ERROR =          -7306.67           BUDGET ERROR =             25.96


  PERCENT DISCREPANCY =             -0.05    PERCENT DISCREPANCY =              0.04



1
 SUMMARY VOLUMETRIC BUDGET FOR GSFLOW 
 DATE: 03 10 1981              CUMULATIVE TIME STEP:     161
 MODFLOW STRESS PERIOD      2     CURRENT TIME STEP:     161     ITERATIONS:      11

 -----------------------------------------------------------------------------------

   CUMULATIVE VOLUMES               L**3   RATES FOR THIS TIME STEP           L**3/T
   ------------------                      ------------------------

                                     IN                                         IN
                                     --                                         --
        PRECIPITATION =        1.3493D+07          PRECIPITATION =                  
           STREAMFLOW =                               STREAMFLOW =                  
     GW BOUNDARY FLOW =                         GW BOUNDARY FLOW =                  


                                    OUT                                        OUT
                                    ---                                        ---
   EVAPOTRANSPIRATION =        4306686.57     EVAPOTRANSPIRATION =          67192.35
           STREAMFLOW =        3561079.32             STREAMFLOW =          40119.47
     GW BOUNDARY FLOW =         104732.48       GW BOUNDARY FLOW =            652.69

   INFLOWS - OUTFLOWS =        5520442.79     INFLOWS - OUTFLOWS =        -107964.51
             --------                                   --------

 TOTAL STORAGE CHANGE =        5527644.20         STORAGE CHANGE =        -107979.50
       --------------                             --------------
         LAND SURFACE =        4665498.38           LAND SURFACE =        -147188.93
            SOIL ZONE =        2601073.15              SOIL ZONE =          24949.57
     UNSATURATED ZONE =       -1073092.34       UNSATURATED ZONE =          15655.83
       SATURATED ZONE =        -665835.00         SATURATED ZONE =          -1395.96

 OVERALL BUDGET ERROR =          -7201.41           BUDGET ERROR =             15.00


  PERCENT DISCREPANCY =             -0.05    PERCENT DISCREPANCY =              0.01



1
 SUMMARY VOLUMETRIC BUDGET FOR GSFLOW 
 DATE: 03 17 1981              CUMULATIVE TIME STEP:     168
 MODFLOW STRESS PERIOD      2     CURRENT TIME STEP:     168     ITERATIONS:       9

 -----------------------------------------------------------------------------------

   CUMULATIVE VOLUMES               L**3   RATES FOR THIS TIME STEP           L**3/T
   ------------------                      ------------------------

                                     IN                                         IN
                                     --                                         --
        PRECIPITATION =        1.3744D+07          PRECIPITATION =                  
           STREAMFLOW =                               STREAMFLOW =                  
     GW BOUNDARY FLOW =                         GW BOUNDARY FLOW =                  


                                    OUT                                        OUT
                                    ---                                        ---
   EVAPOTRANSPIRATION =        4623359.25     EVAPOTRANSPIRATION =          33262.65
           STREAMFLOW =        3777506.50             STREAMFLOW =          23649.34
     GW BOUNDARY FLOW =         109298.63       GW BOUNDARY FLOW =            651.78

   INFLOWS - OUTFLOWS =        5234326.50     INFLOWS - OUTFLOWS =         -57563.77
             --------                                   --------

 TOTAL STORAGE CHANGE =        5241417.12         STORAGE CHANGE =         -57575.79
       --------------                             --------------
         LAND SURFACE =        4532338.76           LAND SURFACE =         -32994.50
            SOIL ZONE =        2464994.38              SOIL ZONE =          -5111.79
     UNSATURATED ZONE =       -1068641.16       UNSATURATED ZONE =         -14669.20
       SATURATED ZONE =        -687274.86         SATURATED ZONE =          -4800.29

 OVERALL BUDGET ERROR =          -7090.61           BUDGET ERROR =             12.02


  PERCENT DISCREPANCY =             -0.05    PERCENT DISCREPANCY =              0.02



1
 SUMMARY VOLUMETRIC BUDGET FOR GSFLOW 
 DATE: 03 24 1981              CUMULATIVE TIME STEP:     175
 MODFLOW STRESS PERIOD      2     CURRENT TIME STEP:     175     ITERATIONS:       9

 -----------------------------------------------------------------------------------

   CUMULATIVE VOLUMES               L**3   RATES FOR THIS TIME STEP           L**3/T
   ------------------                      ------------------------

                                     IN                                         IN
                                     --                                         --
        PRECIPITATION =        1.4367D+07          PRECIPITATION =                  
           STREAMFLOW =                               STREAMFLOW =                  
     GW BOUNDARY FLOW =                         GW BOUNDARY FLOW =                  


                                    OUT                                        OUT
                                    ---                                        ---
   EVAPOTRANSPIRATION =        4943182.52     EVAPOTRANSPIRATION =          80764.17
           STREAMFLOW =        3942176.16             STREAMFLOW =          25015.49
     GW BOUNDARY FLOW =         113858.14       GW BOUNDARY FLOW =            651.26

   INFLOWS - OUTFLOWS =        5367528.69     INFLOWS - OUTFLOWS =        -106430.92
             --------                                   --------

 TOTAL STORAGE CHANGE =        5374592.64         STORAGE CHANGE =        -106428.46
       --------------                             --------------
         LAND SURFACE =        4882235.57           LAND SURFACE =         -56598.13
            SOIL ZONE =        2366219.48              SOIL ZONE =         -38087.85
     UNSATURATED ZONE =       -1147818.90       UNSATURATED ZONE =          -6082.29
       SATURATED ZONE =        -726043.50         SATURATED ZONE =          -5660.18

 OVERALL BUDGET ERROR =          -7063.95           BUDGET ERROR =             -2.46


  PERCENT DISCREPANCY =             -0.05    PERCENT DISCREPANCY =             -0.00



1
 SUMMARY VOLUMETRIC BUDGET FOR GSFLOW 
 DATE: 03 31 1981              CUMULATIVE TIME STEP:     182
 MODFLOW STRESS PERIOD      2     CURRENT TIME STEP:     182     ITERATIONS:      12

 -----------------------------------------------------------------------------------

   CUMULATIVE VOLUMES               L**3   RATES FOR THIS TIME STEP           L**3/T
   ------------------                      ------------------------

                                     IN                                         IN
                                     --                                         --
        PRECIPITATION =        1.5777D+07          PRECIPITATION =                  
           STREAMFLOW =                               STREAMFLOW =                  
     GW BOUNDARY FLOW =                         GW BOUNDARY FLOW =                  


                                    OUT                                        OUT
                                    ---                                        ---
   EVAPOTRANSPIRATION =        5331355.82     EVAPOTRANSPIRATION =          42424.06
           STREAMFLOW =        4388532.01             STREAMFLOW =          33724.57
     GW BOUNDARY FLOW =         118436.44       GW BOUNDARY FLOW =            653.15

   INFLOWS - OUTFLOWS =        5938423.71     INFLOWS - OUTFLOWS =         -76801.78
             --------                                   --------

 TOTAL STORAGE CHANGE =        5945392.27         STORAGE CHANGE =         -76820.27
       --------------                             --------------
         LAND SURFACE =        5101875.85           LAND SURFACE =         -42987.31
            SOIL ZONE =        2534052.52              SOIL ZONE =         -32552.58
     UNSATURATED ZONE =        -959856.04       UNSATURATED ZONE =           1198.24
       SATURATED ZONE =        -730680.07         SATURATED ZONE =          -2478.62

 OVERALL BUDGET ERROR =          -6968.55           BUDGET ERROR =             18.49


  PERCENT DISCREPANCY =             -0.04    PERCENT DISCREPANCY =              0.02



1
 SUMMARY VOLUMETRIC BUDGET FOR GSFLOW 
 DATE: 04 07 1981              CUMULATIVE TIME STEP:     189
 MODFLOW STRESS PERIOD      2     CURRENT TIME STEP:     189     ITERATIONS:      10

 -----------------------------------------------------------------------------------

   CUMULATIVE VOLUMES               L**3   RATES FOR THIS TIME STEP           L**3/T
   ------------------                      ------------------------

                                     IN                                         IN
                                     --                                         --
        PRECIPITATION =        1.6121D+07          PRECIPITATION =                  
           STREAMFLOW =                               STREAMFLOW =                  
     GW BOUNDARY FLOW =                         GW BOUNDARY FLOW =                  


                                    OUT                                        OUT
                                    ---                                        ---
   EVAPOTRANSPIRATION =        5925804.63     EVAPOTRANSPIRATION =          97287.85
           STREAMFLOW =        4682770.67             STREAMFLOW =          42100.72
     GW BOUNDARY FLOW =         123009.38       GW BOUNDARY FLOW =            653.55

   INFLOWS - OUTFLOWS =        5389882.93     INFLOWS - OUTFLOWS =        -140042.12
             --------                                   --------

 TOTAL STORAGE CHANGE =        5396733.37         STORAGE CHANGE =        -140057.11
       --------------                             --------------
         LAND SURFACE =        4536824.57           LAND SURFACE =        -138203.79
            SOIL ZONE =        2495745.36              SOIL ZONE =         -11852.08
     UNSATURATED ZONE =        -895612.47       UNSATURATED ZONE =          10847.93
       SATURATED ZONE =        -740224.09         SATURATED ZONE =           -849.17

 OVERALL BUDGET ERROR =          -6850.44           BUDGET ERROR =             14.99


  PERCENT DISCREPANCY =             -0.04    PERCENT DISCREPANCY =              0.01



1
 SUMMARY VOLUMETRIC BUDGET FOR GSFLOW 
 DATE: 04 14 1981              CUMULATIVE TIME STEP:     196
 MODFLOW STRESS PERIOD      2     CURRENT TIME STEP:     196     ITERATIONS:      13

 -----------------------------------------------------------------------------------

   CUMULATIVE VOLUMES               L**3   RATES FOR THIS TIME STEP           L**3/T
   ------------------                      ------------------------

                                     IN                                         IN
                                     --                                         --
        PRECIPITATION =        1.6121D+07          PRECIPITATION =                  
           STREAMFLOW =                               STREAMFLOW =                  
     GW BOUNDARY FLOW =                         GW BOUNDARY FLOW =                  


                                    OUT                                        OUT
                                    ---                                        ---
   EVAPOTRANSPIRATION =        6789233.79     EVAPOTRANSPIRATION =         187136.52
           STREAMFLOW =        5019628.25             STREAMFLOW =          60744.66
     GW BOUNDARY FLOW =         127585.07       GW BOUNDARY FLOW =            653.96

   INFLOWS - OUTFLOWS =        4185020.50     INFLOWS - OUTFLOWS =        -248535.13
             --------                                   --------

 TOTAL STORAGE CHANGE =        4191708.60         STORAGE CHANGE =        -248548.07
       --------------                             --------------
         LAND SURFACE =        3249108.93           LAND SURFACE =        -276414.16
            SOIL ZONE =        2467694.21              SOIL ZONE =           -575.17
     UNSATURATED ZONE =        -784183.88       UNSATURATED ZONE =          26644.12
       SATURATED ZONE =        -740910.67         SATURATED ZONE =           1797.14

 OVERALL BUDGET ERROR =          -6688.11           BUDGET ERROR =             12.94


  PERCENT DISCREPANCY =             -0.04    PERCENT DISCREPANCY =              0.01



1
 SUMMARY VOLUMETRIC BUDGET FOR GSFLOW 
 DATE: 04 21 1981              CUMULATIVE TIME STEP:     203
 MODFLOW STRESS PERIOD      2     CURRENT TIME STEP:     203     ITERATIONS:      14

 -----------------------------------------------------------------------------------

   CUMULATIVE VOLUMES               L**3   RATES FOR THIS TIME STEP           L**3/T
   ------------------                      ------------------------

                                     IN                                         IN
                                     --                                         --
        PRECIPITATION =        1.6310D+07          PRECIPITATION =                  
           STREAMFLOW =                               STREAMFLOW =                  
     GW BOUNDARY FLOW =                         GW BOUNDARY FLOW =                  


                                    OUT                                        OUT
                                    ---                                        ---
   EVAPOTRANSPIRATION =        7833635.67     EVAPOTRANSPIRATION =         153838.02
           STREAMFLOW =        5406089.66             STREAMFLOW =          53832.52
     GW BOUNDARY FLOW =         132159.43       GW BOUNDARY FLOW =            653.13

   INFLOWS - OUTFLOWS =        2938357.88     INFLOWS - OUTFLOWS =        -208323.66
             --------                                   --------

 TOTAL STORAGE CHANGE =        2944895.33         STORAGE CHANGE =        -208340.38
       --------------                             --------------
         LAND SURFACE =        1941586.43           LAND SURFACE =        -141315.80
            SOIL ZONE =        2354009.95              SOIL ZONE =         -93484.10
     UNSATURATED ZONE =        -626275.97       UNSATURATED ZONE =          23400.61
       SATURATED ZONE =        -724425.08         SATURATED ZONE =           3058.91

 OVERALL BUDGET ERROR =          -6537.45           BUDGET ERROR =             16.72


  PERCENT DISCREPANCY =             -0.04    PERCENT DISCREPANCY =              0.01



1
 SUMMARY VOLUMETRIC BUDGET FOR GSFLOW 
 DATE: 04 28 1981              CUMULATIVE TIME STEP:     210
 MODFLOW STRESS PERIOD      2     CURRENT TIME STEP:     210     ITERATIONS:      14

 -----------------------------------------------------------------------------------

   CUMULATIVE VOLUMES               L**3   RATES FOR THIS TIME STEP           L**3/T
   ------------------                      ------------------------

                                     IN                                         IN
                                     --                                         --
        PRECIPITATION =        1.6515D+07          PRECIPITATION =                  
           STREAMFLOW =                               STREAMFLOW =                  
     GW BOUNDARY FLOW =                         GW BOUNDARY FLOW =                  


                                    OUT                                        OUT
                                    ---                                        ---
   EVAPOTRANSPIRATION =        9093243.80     EVAPOTRANSPIRATION =         210764.36
           STREAMFLOW =        5666339.43             STREAMFLOW =          30403.89
     GW BOUNDARY FLOW =         136722.87       GW BOUNDARY FLOW =            650.99

   INFLOWS - OUTFLOWS =        1619126.79     INFLOWS - OUTFLOWS =        -241819.23
             --------                                   --------

 TOTAL STORAGE CHANGE =        1625482.01         STORAGE CHANGE =        -241848.43
       --------------                             --------------
         LAND SURFACE =        1047886.51           LAND SURFACE =        -108965.88
            SOIL ZONE =        1858743.05              SOIL ZONE =        -138312.15
     UNSATURATED ZONE =        -569904.45       UNSATURATED ZONE =           3854.40
       SATURATED ZONE =        -711243.11         SATURATED ZONE =           1575.21

 OVERALL BUDGET ERROR =          -6355.22           BUDGET ERROR =             29.19


  PERCENT DISCREPANCY =             -0.04    PERCENT DISCREPANCY =              0.01



1
 SUMMARY VOLUMETRIC BUDGET FOR GSFLOW 
 DATE: 05 05 1981              CUMULATIVE TIME STEP:     217
 MODFLOW STRESS PERIOD      2     CURRENT TIME STEP:     217     ITERATIONS:      14

 -----------------------------------------------------------------------------------

   CUMULATIVE VOLUMES               L**3   RATES FOR THIS TIME STEP           L**3/T
   ------------------                      ------------------------

                                     IN                                         IN
                                     --                                         --
        PRECIPITATION =        1.6515D+07          PRECIPITATION =                  
           STREAMFLOW =                               STREAMFLOW =                  
     GW BOUNDARY FLOW =                         GW BOUNDARY FLOW =                  


                                    OUT                                        OUT
                                    ---                                        ---
   EVAPOTRANSPIRATION =        9951501.33     EVAPOTRANSPIRATION =          47249.59
           STREAMFLOW =        5789549.68             STREAMFLOW =          11742.50
     GW BOUNDARY FLOW =         141271.73       GW BOUNDARY FLOW =            649.01

   INFLOWS - OUTFLOWS =         633110.15     INFLOWS - OUTFLOWS =         -59641.09
             --------                                   --------

 TOTAL STORAGE CHANGE =         639325.83         STORAGE CHANGE =         -59658.84
       --------------                             --------------
         LAND SURFACE =         583908.85           LAND SURFACE =         -19597.75
            SOIL ZONE =        1412564.19              SOIL ZONE =         -23662.61
     UNSATURATED ZONE =        -637540.26       UNSATURATED ZONE =         -14264.34
       SATURATED ZONE =        -719606.96         SATURATED ZONE =          -2134.14

 OVERALL BUDGET ERROR =          -6215.68           BUDGET ERROR =             17.75


  PERCENT DISCREPANCY =             -0.04    PERCENT DISCREPANCY =              0.03



1
 SUMMARY VOLUMETRIC BUDGET FOR GSFLOW 
 DATE: 05 12 1981              CUMULATIVE TIME STEP:     224
 MODFLOW STRESS PERIOD      2     CURRENT TIME STEP:     224     ITERATIONS:      12

 -----------------------------------------------------------------------------------

   CUMULATIVE VOLUMES               L**3   RATES FOR THIS TIME STEP           L**3/T
   ------------------                      ------------------------

                                     IN                                         IN
                                     --                                         --
        PRECIPITATION =        1.6515D+07          PRECIPITATION =                  
           STREAMFLOW =                               STREAMFLOW =                  
     GW BOUNDARY FLOW =                         GW BOUNDARY FLOW =                  


                                    OUT                                        OUT
                                    ---                                        ---
   EVAPOTRANSPIRATION =        1.0485D+07     EVAPOTRANSPIRATION =         102655.94
           STREAMFLOW =        5870637.16             STREAMFLOW =          12809.20
     GW BOUNDARY FLOW =         145811.73       GW BOUNDARY FLOW =            648.47

   INFLOWS - OUTFLOWS =          14422.49     INFLOWS - OUTFLOWS =        -116113.61
             --------                                   --------

 TOTAL STORAGE CHANGE =          20529.17         STORAGE CHANGE =        -116132.91
       --------------                             --------------
         LAND SURFACE =         364139.12           LAND SURFACE =         -39545.55
            SOIL ZONE =        1129442.00              SOIL ZONE =         -61841.16
     UNSATURATED ZONE =        -730524.01       UNSATURATED ZONE =         -10485.60
       SATURATED ZONE =        -742527.95         SATURATED ZONE =          -4260.59

 OVERALL BUDGET ERROR =          -6106.68           BUDGET ERROR =             19.30


  PERCENT DISCREPANCY =             -0.04    PERCENT DISCREPANCY =              0.02



1
 SUMMARY VOLUMETRIC BUDGET FOR GSFLOW 
 DATE: 05 19 1981              CUMULATIVE TIME STEP:     231
 MODFLOW STRESS PERIOD      2     CURRENT TIME STEP:     231     ITERATIONS:      19

 -----------------------------------------------------------------------------------

   CUMULATIVE VOLUMES               L**3   RATES FOR THIS TIME STEP           L**3/T
   ------------------                      ------------------------

                                     IN                                         IN
                                     --                                         --
        PRECIPITATION =        1.7837D+07          PRECIPITATION =         169045.43
           STREAMFLOW =                               STREAMFLOW =                  
     GW BOUNDARY FLOW =                         GW BOUNDARY FLOW =                  


                                    OUT                                        OUT
                                    ---                                        ---
   EVAPOTRANSPIRATION =        1.0831D+07     EVAPOTRANSPIRATION =          31098.89
           STREAMFLOW =        6024579.99             STREAMFLOW =          31394.21
     GW BOUNDARY FLOW =         150353.26       GW BOUNDARY FLOW =            649.96

   INFLOWS - OUTFLOWS =         830820.65     INFLOWS - OUTFLOWS =         105902.36
             --------                                   --------

 TOTAL STORAGE CHANGE =         836854.93         STORAGE CHANGE =         105892.22
       --------------                             --------------
         LAND SURFACE =         315733.71           LAND SURFACE =          16905.78
            SOIL ZONE =        2065278.96              SOIL ZONE =          86266.64
     UNSATURATED ZONE =        -768130.47       UNSATURATED ZONE =           6896.41
       SATURATED ZONE =        -776027.27         SATURATED ZONE =          -4176.60

 OVERALL BUDGET ERROR =          -6034.28           BUDGET ERROR =             10.14


  PERCENT DISCREPANCY =             -0.03    PERCENT DISCREPANCY =              0.01



1
 SUMMARY VOLUMETRIC BUDGET FOR GSFLOW 
 DATE: 05 26 1981              CUMULATIVE TIME STEP:     238
 MODFLOW STRESS PERIOD      2     CURRENT TIME STEP:     238     ITERATIONS:      14

 -----------------------------------------------------------------------------------

   CUMULATIVE VOLUMES               L**3   RATES FOR THIS TIME STEP           L**3/T
   ------------------                      ------------------------

                                     IN                                         IN
                                     --                                         --
        PRECIPITATION =        1.8252D+07          PRECIPITATION =         284303.67
           STREAMFLOW =                               STREAMFLOW =                  
     GW BOUNDARY FLOW =                         GW BOUNDARY FLOW =                  


                                    OUT                                        OUT
                                    ---                                        ---
   EVAPOTRANSPIRATION =        1.1624D+07     EVAPOTRANSPIRATION =         126247.52
           STREAMFLOW =        6161249.49             STREAMFLOW =          24072.44
     GW BOUNDARY FLOW =         154897.37       GW BOUNDARY FLOW =            648.95

   INFLOWS - OUTFLOWS =         311747.65     INFLOWS - OUTFLOWS =         133334.77
             --------                                   --------

 TOTAL STORAGE CHANGE =         317719.04         STORAGE CHANGE =         133327.05
       --------------                             --------------
         LAND SURFACE =         197572.68           LAND SURFACE =         -13397.86
            SOIL ZONE =        1731650.05              SOIL ZONE =         158565.14
     UNSATURATED ZONE =        -794999.38       UNSATURATED ZONE =          -6312.08
       SATURATED ZONE =        -816504.32         SATURATED ZONE =          -5528.14

 OVERALL BUDGET ERROR =          -5971.39           BUDGET ERROR =              7.71


  PERCENT DISCREPANCY =             -0.03    PERCENT DISCREPANCY =              0.00



1
 SUMMARY VOLUMETRIC BUDGET FOR GSFLOW 
 DATE: 06 02 1981              CUMULATIVE TIME STEP:     245
 MODFLOW STRESS PERIOD      2     CURRENT TIME STEP:     245     ITERATIONS:      17

 -----------------------------------------------------------------------------------

   CUMULATIVE VOLUMES               L**3   RATES FOR THIS TIME STEP           L**3/T
   ------------------                      ------------------------

                                     IN                                         IN
                                     --                                         --
        PRECIPITATION =        1.8318D+07          PRECIPITATION =          50869.96
           STREAMFLOW =                               STREAMFLOW =                  
     GW BOUNDARY FLOW =                         GW BOUNDARY FLOW =                  


                                    OUT                                        OUT
                                    ---                                        ---
   EVAPOTRANSPIRATION =        1.2453D+07     EVAPOTRANSPIRATION =          66857.03
           STREAMFLOW =        6247742.48             STREAMFLOW =           9164.73
     GW BOUNDARY FLOW =         159435.17       GW BOUNDARY FLOW =            647.72

   INFLOWS - OUTFLOWS =        -542378.22     INFLOWS - OUTFLOWS =         -25799.52
             --------                                   --------

 TOTAL STORAGE CHANGE =        -536449.59         STORAGE CHANGE =         -25806.46
       --------------                             --------------
         LAND SURFACE =         119474.98           LAND SURFACE =          25659.25
            SOIL ZONE =        1084636.81              SOIL ZONE =         -31372.56
     UNSATURATED ZONE =        -872544.22       UNSATURATED ZONE =         -12178.20
       SATURATED ZONE =        -868017.15         SATURATED ZONE =          -7914.95

 OVERALL BUDGET ERROR =          -5928.63           BUDGET ERROR =              6.94


  PERCENT DISCREPANCY =             -0.03    PERCENT DISCREPANCY =              0.01



1
 SUMMARY VOLUMETRIC BUDGET FOR GSFLOW 
 DATE: 06 09 1981              CUMULATIVE TIME STEP:     252
 MODFLOW STRESS PERIOD      2     CURRENT TIME STEP:     252     ITERATIONS:      15

 -----------------------------------------------------------------------------------

   CUMULATIVE VOLUMES               L**3   RATES FOR THIS TIME STEP           L**3/T
   ------------------                      ------------------------

                                     IN                                         IN
                                     --                                         --
        PRECIPITATION =        1.8318D+07          PRECIPITATION =                  
           STREAMFLOW =                               STREAMFLOW =                  
     GW BOUNDARY FLOW =                         GW BOUNDARY FLOW =                  


                                    OUT                                        OUT
                                    ---                                        ---
   EVAPOTRANSPIRATION =        1.3014D+07     EVAPOTRANSPIRATION =          57148.62
           STREAMFLOW =        6302735.94             STREAMFLOW =           7220.75
     GW BOUNDARY FLOW =         163966.61       GW BOUNDARY FLOW =            647.13

   INFLOWS - OUTFLOWS =       -1162133.28     INFLOWS - OUTFLOWS =         -65016.50
             --------                                   --------

 TOTAL STORAGE CHANGE =       -1156252.83         STORAGE CHANGE =         -65021.99
       --------------                             --------------
         LAND SURFACE =          39669.53           LAND SURFACE =          -4382.74
            SOIL ZONE =         686457.95              SOIL ZONE =         -40138.51
     UNSATURATED ZONE =        -955241.42       UNSATURATED ZONE =         -11861.89
       SATURATED ZONE =        -927138.88         SATURATED ZONE =          -8638.85

 OVERALL BUDGET ERROR =          -5880.45           BUDGET ERROR =              5.48


  PERCENT DISCREPANCY =             -0.03    PERCENT DISCREPANCY =              0.01



1
 SUMMARY VOLUMETRIC BUDGET FOR GSFLOW 
 DATE: 06 16 1981              CUMULATIVE TIME STEP:     259
 MODFLOW STRESS PERIOD      2     CURRENT TIME STEP:     259     ITERATIONS:      14

 -----------------------------------------------------------------------------------

   CUMULATIVE VOLUMES               L**3   RATES FOR THIS TIME STEP           L**3/T
   ------------------                      ------------------------

                                     IN                                         IN
                                     --                                         --
        PRECIPITATION =        1.8318D+07          PRECIPITATION =                  
           STREAMFLOW =                               STREAMFLOW =                  
     GW BOUNDARY FLOW =                         GW BOUNDARY FLOW =                  


                                    OUT                                        OUT
                                    ---                                        ---
   EVAPOTRANSPIRATION =        1.3223D+07     EVAPOTRANSPIRATION =          49064.83
           STREAMFLOW =        6350421.91             STREAMFLOW =           6660.57
     GW BOUNDARY FLOW =         168495.38       GW BOUNDARY FLOW =            646.87

   INFLOWS - OUTFLOWS =       -1423467.93     INFLOWS - OUTFLOWS =         -56372.27
             --------                                   --------

 TOTAL STORAGE CHANGE =       -1417616.18         STORAGE CHANGE =         -56376.73
       --------------                             --------------
         LAND SURFACE =          25589.68           LAND SURFACE =          -3042.77
            SOIL ZONE =         588707.81              SOIL ZONE =         -31684.11
     UNSATURATED ZONE =       -1042056.56       UNSATURATED ZONE =         -12618.02
       SATURATED ZONE =        -989857.11         SATURATED ZONE =          -9031.83

 OVERALL BUDGET ERROR =          -5851.75           BUDGET ERROR =              4.46


  PERCENT DISCREPANCY =             -0.03    PERCENT DISCREPANCY =              0.01



1
 SUMMARY VOLUMETRIC BUDGET FOR GSFLOW 
 DATE: 06 23 1981              CUMULATIVE TIME STEP:     266
 MODFLOW STRESS PERIOD      2     CURRENT TIME STEP:     266     ITERATIONS:      18

 -----------------------------------------------------------------------------------

   CUMULATIVE VOLUMES               L**3   RATES FOR THIS TIME STEP           L**3/T
   ------------------                      ------------------------

                                     IN                                         IN
                                     --                                         --
        PRECIPITATION =        1.8318D+07          PRECIPITATION =                  
           STREAMFLOW =                               STREAMFLOW =                  
     GW BOUNDARY FLOW =                         GW BOUNDARY FLOW =                  


                                    OUT                                        OUT
                                    ---                                        ---
   EVAPOTRANSPIRATION =        1.3566D+07     EVAPOTRANSPIRATION =          40265.99
           STREAMFLOW =        6394784.58             STREAMFLOW =           6086.32
     GW BOUNDARY FLOW =         173022.54       GW BOUNDARY FLOW =            646.64

   INFLOWS - OUTFLOWS =       -1815384.90     INFLOWS - OUTFLOWS =         -46998.94
             --------                                   --------

 TOTAL STORAGE CHANGE =       -1809582.22         STORAGE CHANGE =         -47005.87
       --------------                             --------------
         LAND SURFACE =           6959.28           LAND SURFACE =          -1578.51
            SOIL ZONE =         368209.53              SOIL ZONE =         -23666.10
     UNSATURATED ZONE =       -1129259.23       UNSATURATED ZONE =         -12191.31
       SATURATED ZONE =       -1055491.80         SATURATED ZONE =          -9569.94

 OVERALL BUDGET ERROR =          -5802.68           BUDGET ERROR =              6.92


  PERCENT DISCREPANCY =             -0.03    PERCENT DISCREPANCY =              0.01



1
 SUMMARY VOLUMETRIC BUDGET FOR GSFLOW 
 DATE: 06 30 1981              CUMULATIVE TIME STEP:     273
 MODFLOW STRESS PERIOD      2     CURRENT TIME STEP:     273     ITERATIONS:      14

 -----------------------------------------------------------------------------------

   CUMULATIVE VOLUMES               L**3   RATES FOR THIS TIME STEP           L**3/T
   ------------------                      ------------------------

                                     IN                                         IN
[...]
                                    ---                                        ---
   EVAPOTRANSPIRATION =        2.8438D+08     EVAPOTRANSPIRATION =          49548.96
           STREAMFLOW =        1.8433D+08             STREAMFLOW =           7342.02
     GW BOUNDARY FLOW =        3736520.09       GW BOUNDARY FLOW =            651.07

   INFLOWS - OUTFLOWS =       -7386049.76     INFLOWS - OUTFLOWS =         -57542.05
             --------                                   --------

 TOTAL STORAGE CHANGE =       -7285731.26         STORAGE CHANGE =         -57556.30
       --------------                             --------------
         LAND SURFACE =         214963.45           LAND SURFACE =         -10645.32
            SOIL ZONE =         343308.75              SOIL ZONE =         -25489.13
     UNSATURATED ZONE =        5399192.64       UNSATURATED ZONE =         -28154.20
       SATURATED ZONE =       -1.3243D+07         SATURATED ZONE =           6732.35

 OVERALL BUDGET ERROR =        -100318.49           BUDGET ERROR =             14.25


  PERCENT DISCREPANCY =             -0.02    PERCENT DISCREPANCY =              0.02



1
 SUMMARY VOLUMETRIC BUDGET FOR GSFLOW 
 DATE: 07 30 1996              CUMULATIVE TIME STEP:    5782
 MODFLOW STRESS PERIOD      2     CURRENT TIME STEP:    5782     ITERATIONS:      15

 -----------------------------------------------------------------------------------

   CUMULATIVE VOLUMES               L**3   RATES FOR THIS TIME STEP           L**3/T
   ------------------                      ------------------------

                                     IN                                         IN
                                     --                                         --
        PRECIPITATION =        4.6511D+08          PRECIPITATION =                  
           STREAMFLOW =                               STREAMFLOW =                  
     GW BOUNDARY FLOW =                         GW BOUNDARY FLOW =                  


                                    OUT                                        OUT
                                    ---                                        ---
   EVAPOTRANSPIRATION =        2.8469D+08     EVAPOTRANSPIRATION =          32621.52
           STREAMFLOW =        1.8438D+08             STREAMFLOW =           7043.31
     GW BOUNDARY FLOW =        3741075.80       GW BOUNDARY FLOW =            650.65

   INFLOWS - OUTFLOWS =       -7699131.30     INFLOWS - OUTFLOWS =         -40315.47
             --------                                   --------

 TOTAL STORAGE CHANGE =       -7599000.45         STORAGE CHANGE =         -40341.73
       --------------                             --------------
         LAND SURFACE =         152309.38           LAND SURFACE =          -7555.65
            SOIL ZONE =         243646.07              SOIL ZONE =         -11322.75
     UNSATURATED ZONE =        5201413.22       UNSATURATED ZONE =         -27832.74
       SATURATED ZONE =       -1.3196D+07         SATURATED ZONE =           6369.41

 OVERALL BUDGET ERROR =        -100130.85           BUDGET ERROR =             26.25


  PERCENT DISCREPANCY =             -0.02    PERCENT DISCREPANCY =              0.07



1
 SUMMARY VOLUMETRIC BUDGET FOR GSFLOW 
 DATE: 08 06 1996              CUMULATIVE TIME STEP:    5789
 MODFLOW STRESS PERIOD      2     CURRENT TIME STEP:    5789     ITERATIONS:      14

 -----------------------------------------------------------------------------------

   CUMULATIVE VOLUMES               L**3   RATES FOR THIS TIME STEP           L**3/T
   ------------------                      ------------------------

                                     IN                                         IN
                                     --                                         --
        PRECIPITATION =        4.6511D+08          PRECIPITATION =                  
           STREAMFLOW =                               STREAMFLOW =                  
     GW BOUNDARY FLOW =                         GW BOUNDARY FLOW =                  


                                    OUT                                        OUT
                                    ---                                        ---
   EVAPOTRANSPIRATION =        2.8487D+08     EVAPOTRANSPIRATION =          26110.25
           STREAMFLOW =        1.8443D+08             STREAMFLOW =           6763.29
     GW BOUNDARY FLOW =        3745630.01       GW BOUNDARY FLOW =            650.54

   INFLOWS - OUTFLOWS =       -7936171.84     INFLOWS - OUTFLOWS =         -33524.08
             --------                                   --------

 TOTAL STORAGE CHANGE =       -7836231.54         STORAGE CHANGE =         -33550.52
       --------------                             --------------
         LAND SURFACE =         111776.46           LAND SURFACE =          -5017.65
            SOIL ZONE =         195863.58              SOIL ZONE =          -7398.43
     UNSATURATED ZONE =        5012489.22       UNSATURATED ZONE =         -26250.97
       SATURATED ZONE =       -1.3156D+07         SATURATED ZONE =           5116.53

 OVERALL BUDGET ERROR =         -99940.30           BUDGET ERROR =             26.44


  PERCENT DISCREPANCY =             -0.02    PERCENT DISCREPANCY =              0.08



1
 SUMMARY VOLUMETRIC BUDGET FOR GSFLOW 
 DATE: 08 13 1996              CUMULATIVE TIME STEP:    5796
 MODFLOW STRESS PERIOD      2     CURRENT TIME STEP:    5796     ITERATIONS:      15

 -----------------------------------------------------------------------------------

   CUMULATIVE VOLUMES               L**3   RATES FOR THIS TIME STEP           L**3/T
   ------------------                      ------------------------

                                     IN                                         IN
                                     --                                         --
        PRECIPITATION =        4.6531D+08          PRECIPITATION =          54454.08
           STREAMFLOW =                               STREAMFLOW =                  
     GW BOUNDARY FLOW =                         GW BOUNDARY FLOW =                  


                                    OUT                                        OUT
                                    ---                                        ---
   EVAPOTRANSPIRATION =        2.8508D+08     EVAPOTRANSPIRATION =          36347.29
           STREAMFLOW =        1.8448D+08             STREAMFLOW =           7968.62
     GW BOUNDARY FLOW =        3750183.34       GW BOUNDARY FLOW =            650.49

   INFLOWS - OUTFLOWS =       -8001439.95     INFLOWS - OUTFLOWS =           9487.68
             --------                                   --------

 TOTAL STORAGE CHANGE =       -7901657.24         STORAGE CHANGE =           9461.67
       --------------                             --------------
         LAND SURFACE =         105220.94           LAND SURFACE =          -5194.35
            SOIL ZONE =         283356.05              SOIL ZONE =          35377.72
     UNSATURATED ZONE =        4832408.17       UNSATURATED ZONE =         -25083.89
       SATURATED ZONE =       -1.3123D+07         SATURATED ZONE =           4362.19

 OVERALL BUDGET ERROR =         -99782.72           BUDGET ERROR =             26.01


  PERCENT DISCREPANCY =             -0.02    PERCENT DISCREPANCY =              0.05



1
 SUMMARY VOLUMETRIC BUDGET FOR GSFLOW 
 DATE: 08 20 1996              CUMULATIVE TIME STEP:    5803
 MODFLOW STRESS PERIOD      2     CURRENT TIME STEP:    5803     ITERATIONS:      14

 -----------------------------------------------------------------------------------

   CUMULATIVE VOLUMES               L**3   RATES FOR THIS TIME STEP           L**3/T
   ------------------                      ------------------------

                                     IN                                         IN
                                     --                                         --
        PRECIPITATION =        4.6531D+08          PRECIPITATION =                  
           STREAMFLOW =                               STREAMFLOW =                  
     GW BOUNDARY FLOW =                         GW BOUNDARY FLOW =                  


                                    OUT                                        OUT
                                    ---                                        ---
   EVAPOTRANSPIRATION =        2.8530D+08     EVAPOTRANSPIRATION =          18205.41
           STREAMFLOW =        1.8453D+08             STREAMFLOW =           6518.20
     GW BOUNDARY FLOW =        3754735.08       GW BOUNDARY FLOW =            650.07

   INFLOWS - OUTFLOWS =       -8272333.40     INFLOWS - OUTFLOWS =         -25373.68
             --------                                   --------

 TOTAL STORAGE CHANGE =       -8172713.60         STORAGE CHANGE =         -25391.19
       --------------                             --------------
         LAND SURFACE =          44442.31           LAND SURFACE =          -2851.34
            SOIL ZONE =         217815.34              SOIL ZONE =          -1983.73
     UNSATURATED ZONE =        4661445.85       UNSATURATED ZONE =         -23925.18
       SATURATED ZONE =       -1.3096D+07         SATURATED ZONE =           3369.06

 OVERALL BUDGET ERROR =         -99619.80           BUDGET ERROR =             17.51


  PERCENT DISCREPANCY =             -0.02    PERCENT DISCREPANCY =              0.07



1
 SUMMARY VOLUMETRIC BUDGET FOR GSFLOW 
 DATE: 08 27 1996              CUMULATIVE TIME STEP:    5810
 MODFLOW STRESS PERIOD      2     CURRENT TIME STEP:    5810     ITERATIONS:      13

 -----------------------------------------------------------------------------------

   CUMULATIVE VOLUMES               L**3   RATES FOR THIS TIME STEP           L**3/T
   ------------------                      ------------------------

                                     IN                                         IN
                                     --                                         --
        PRECIPITATION =        4.6531D+08          PRECIPITATION =                  
           STREAMFLOW =                               STREAMFLOW =                  
     GW BOUNDARY FLOW =                         GW BOUNDARY FLOW =                  


                                    OUT                                        OUT
                                    ---                                        ---
   EVAPOTRANSPIRATION =        2.8546D+08     EVAPOTRANSPIRATION =          16907.06
           STREAMFLOW =        1.8457D+08             STREAMFLOW =           6353.67
     GW BOUNDARY FLOW =        3759284.01       GW BOUNDARY FLOW =            649.68

   INFLOWS - OUTFLOWS =       -8483022.50     INFLOWS - OUTFLOWS =         -23910.41
             --------                                   --------

 TOTAL STORAGE CHANGE =       -8383600.47         STORAGE CHANGE =         -23940.25
       --------------                             --------------
         LAND SURFACE =          21435.23           LAND SURFACE =          -2621.72
            SOIL ZONE =         172852.37              SOIL ZONE =          -1008.51
     UNSATURATED ZONE =        4499944.80       UNSATURATED ZONE =         -22562.22
       SATURATED ZONE =       -1.3078D+07         SATURATED ZONE =           2252.19

 OVERALL BUDGET ERROR =         -99422.03           BUDGET ERROR =             29.84


  PERCENT DISCREPANCY =             -0.02    PERCENT DISCREPANCY =              0.12



1
 SUMMARY VOLUMETRIC BUDGET FOR GSFLOW 
 DATE: 09 03 1996              CUMULATIVE TIME STEP:    5817
 MODFLOW STRESS PERIOD      2     CURRENT TIME STEP:    5817     ITERATIONS:      13

 -----------------------------------------------------------------------------------

   CUMULATIVE VOLUMES               L**3   RATES FOR THIS TIME STEP           L**3/T
   ------------------                      ------------------------

                                     IN                                         IN
                                     --                                         --
        PRECIPITATION =        4.6531D+08          PRECIPITATION =                  
           STREAMFLOW =                               STREAMFLOW =                  
     GW BOUNDARY FLOW =                         GW BOUNDARY FLOW =                  


                                    OUT                                        OUT
                                    ---                                        ---
   EVAPOTRANSPIRATION =        2.8558D+08     EVAPOTRANSPIRATION =          15245.51
           STREAMFLOW =        1.8462D+08             STREAMFLOW =           6238.95
     GW BOUNDARY FLOW =        3763830.13       GW BOUNDARY FLOW =            649.27

   INFLOWS - OUTFLOWS =       -8650114.09     INFLOWS - OUTFLOWS =         -22133.72
             --------                                   --------

 TOTAL STORAGE CHANGE =       -8550902.66         STORAGE CHANGE =         -22167.17
       --------------                             --------------
         LAND SURFACE =           7240.32           LAND SURFACE =          -1278.90
            SOIL ZONE =         160941.00              SOIL ZONE =           -816.00
     UNSATURATED ZONE =        4346444.43       UNSATURATED ZONE =         -21733.59
       SATURATED ZONE =       -1.3066D+07         SATURATED ZONE =           1661.33

 OVERALL BUDGET ERROR =         -99211.42           BUDGET ERROR =             33.45


  PERCENT DISCREPANCY =             -0.02    PERCENT DISCREPANCY =              0.15



1
 SUMMARY VOLUMETRIC BUDGET FOR GSFLOW 
 DATE: 09 10 1996              CUMULATIVE TIME STEP:    5824
 MODFLOW STRESS PERIOD      2     CURRENT TIME STEP:    5824     ITERATIONS:      13

 -----------------------------------------------------------------------------------

   CUMULATIVE VOLUMES               L**3   RATES FOR THIS TIME STEP           L**3/T
   ------------------                      ------------------------

                                     IN                                         IN
                                     --                                         --
        PRECIPITATION =        4.6531D+08          PRECIPITATION =                  
           STREAMFLOW =                               STREAMFLOW =                  
     GW BOUNDARY FLOW =                         GW BOUNDARY FLOW =                  


                                    OUT                                        OUT
                                    ---                                        ---
   EVAPOTRANSPIRATION =        2.8567D+08     EVAPOTRANSPIRATION =          13782.17
           STREAMFLOW =        1.8466D+08             STREAMFLOW =           6131.13
     GW BOUNDARY FLOW =        3768373.45       GW BOUNDARY FLOW =            648.87

   INFLOWS - OUTFLOWS =       -8787490.66     INFLOWS - OUTFLOWS =         -20562.17
             --------                                   --------

 TOTAL STORAGE CHANGE =       -8688523.35         STORAGE CHANGE =         -20592.21
       --------------                             --------------
         LAND SURFACE =           2510.71           LAND SURFACE =           -704.62
            SOIL ZONE =         167647.67              SOIL ZONE =            -46.20
     UNSATURATED ZONE =        4197200.60       UNSATURATED ZONE =         -20957.74
       SATURATED ZONE =       -1.3056D+07         SATURATED ZONE =           1116.35

 OVERALL BUDGET ERROR =         -98967.31           BUDGET ERROR =             30.04


  PERCENT DISCREPANCY =             -0.02    PERCENT DISCREPANCY =              0.15



1
 SUMMARY VOLUMETRIC BUDGET FOR GSFLOW 
 DATE: 09 17 1996              CUMULATIVE TIME STEP:    5831
 MODFLOW STRESS PERIOD      2     CURRENT TIME STEP:    5831     ITERATIONS:      12

 -----------------------------------------------------------------------------------

   CUMULATIVE VOLUMES               L**3   RATES FOR THIS TIME STEP           L**3/T
   ------------------                      ------------------------

                                     IN                                         IN
                                     --                                         --
        PRECIPITATION =        4.6637D+08          PRECIPITATION =                  
           STREAMFLOW =                               STREAMFLOW =                  
     GW BOUNDARY FLOW =                         GW BOUNDARY FLOW =                  


                                    OUT                                        OUT
                                    ---                                        ---
   EVAPOTRANSPIRATION =        2.8585D+08     EVAPOTRANSPIRATION =          52774.70
           STREAMFLOW =        1.8473D+08             STREAMFLOW =          10113.05
     GW BOUNDARY FLOW =        3772915.94       GW BOUNDARY FLOW =            649.25

   INFLOWS - OUTFLOWS =       -7979247.26     INFLOWS - OUTFLOWS =         -63537.01
             --------                                   --------

 TOTAL STORAGE CHANGE =       -7880554.60         STORAGE CHANGE =         -63573.14
       --------------                             --------------
         LAND SURFACE =            882.14           LAND SURFACE =         -33826.70
            SOIL ZONE =        1113283.48              SOIL ZONE =         -10113.10
     UNSATURATED ZONE =        4052738.99       UNSATURATED ZONE =         -20307.81
       SATURATED ZONE =       -1.3047D+07         SATURATED ZONE =            674.47

 OVERALL BUDGET ERROR =         -98692.67           BUDGET ERROR =             36.14


  PERCENT DISCREPANCY =             -0.02    PERCENT DISCREPANCY =              0.06



1
 SUMMARY VOLUMETRIC BUDGET FOR GSFLOW 
 DATE: 09 24 1996              CUMULATIVE TIME STEP:    5838
 MODFLOW STRESS PERIOD      2     CURRENT TIME STEP:    5838     ITERATIONS:      12

 -----------------------------------------------------------------------------------

   CUMULATIVE VOLUMES               L**3   RATES FOR THIS TIME STEP           L**3/T
   ------------------                      ------------------------

                                     IN                                         IN
                                     --                                         --
        PRECIPITATION =        4.6637D+08          PRECIPITATION =                  
           STREAMFLOW =                               STREAMFLOW =                  
     GW BOUNDARY FLOW =                         GW BOUNDARY FLOW =                  


                                    OUT                                        OUT
                                    ---                                        ---
   EVAPOTRANSPIRATION =        2.8632D+08     EVAPOTRANSPIRATION =          54897.85
           STREAMFLOW =        1.8478D+08             STREAMFLOW =           6671.02
     GW BOUNDARY FLOW =        3777456.76       GW BOUNDARY FLOW =            648.36

   INFLOWS - OUTFLOWS =       -8509801.31     INFLOWS - OUTFLOWS =         -62217.23
             --------                                   --------

 TOTAL STORAGE CHANGE =       -8411353.12         STORAGE CHANGE =         -62250.72
       --------------                             --------------
         LAND SURFACE =                             LAND SURFACE =                  
            SOIL ZONE =         720059.03              SOIL ZONE =         -42809.92
     UNSATURATED ZONE =        3915076.65       UNSATURATED ZONE =         -19291.05
       SATURATED ZONE =       -1.3046D+07         SATURATED ZONE =           -149.74

 OVERALL BUDGET ERROR =         -98448.19           BUDGET ERROR =             33.49


  PERCENT DISCREPANCY =             -0.02    PERCENT DISCREPANCY =              0.05



