1
 SUMMARY VOLUMETRIC BUDGET FOR GSFLOW 
 DATE: 10 07 1980              CUMULATIVE TIME STEP:       7
 MODFLOW STRESS PERIOD      2     CURRENT TIME STEP:       7     ITERATIONS:       6

 -----------------------------------------------------------------------------------

   CUMULATIVE VOLUMES               L**3   RATES FOR THIS TIME STEP           L**3/T
   ------------------                      ------------------------

                                     IN                                         IN
                                     --                                         --
        PRECIPITATION =                            PRECIPITATION =                  
           STREAMFLOW =                               STREAMFLOW =                  
     GW BOUNDARY FLOW =                         GW BOUNDARY FLOW =                  


                                    OUT                                        OUT
                                    ---                                        ---
   EVAPOTRANSPIRATION =          63605.84     EVAPOTRANSPIRATION =           9289.49
           STREAMFLOW =          42957.50             STREAMFLOW =           6065.76
     GW BOUNDARY FLOW =           4541.44       GW BOUNDARY FLOW =            648.70

   INFLOWS - OUTFLOWS =        -111104.78     INFLOWS - OUTFLOWS =         -16003.95
             --------                                   --------

 TOTAL STORAGE CHANGE =        -110709.17         STORAGE CHANGE =         -15943.37
       --------------                             --------------
         LAND SURFACE =                             LAND SURFACE =                  
            SOIL ZONE =          46910.14              SOIL ZONE =           6406.82
     UNSATURATED ZONE =        -144779.04       UNSATURATED ZONE =         -20361.32
       SATURATED ZONE =         -12840.27         SATURATED ZONE =          -1988.86

 OVERALL BUDGET ERROR =           -395.61           BUDGET ERROR =            -60.59


  PERCENT DISCREPANCY =             -0.36    PERCENT DISCREPANCY =             -0.38



1
 SUMMARY VOLUMETRIC BUDGET FOR GSFLOW 
 DATE: 10 14 1980              CUMULATIVE TIME STEP:      14
 MODFLOW STRESS PERIOD      2     CURRENT TIME STEP:      14     ITERATIONS:       6

 -----------------------------------------------------------------------------------

   CUMULATIVE VOLUMES               L**3   RATES FOR THIS TIME STEP           L**3/T
   ------------------                      ------------------------

                                     IN                                         IN
                                     --                                         --
        PRECIPITATION =         650779.83          PRECIPITATION =         164754.40
           STREAMFLOW =                               STREAMFLOW =                  
     GW BOUNDARY FLOW =                         GW BOUNDARY FLOW =                  


                                    OUT                                        OUT
                                    ---                                        ---
   EVAPOTRANSPIRATION =         159027.78     EVAPOTRANSPIRATION =          10554.55
           STREAMFLOW =          94506.77             STREAMFLOW =           7738.45
     GW BOUNDARY FLOW =           9082.96       GW BOUNDARY FLOW =            648.94

   INFLOWS - OUTFLOWS =         388162.33     INFLOWS - OUTFLOWS =         145812.46
             --------                                   --------

 TOTAL STORAGE CHANGE =         389001.38         STORAGE CHANGE =         145874.44
       --------------                             --------------
         LAND SURFACE =         183750.31           LAND SURFACE =         130549.56
            SOIL ZONE =         517314.21              SOIL ZONE =          37353.48
     UNSATURATED ZONE =        -284497.11       UNSATURATED ZONE =         -19625.12
       SATURATED ZONE =         -27566.03         SATURATED ZONE =          -2403.48

 OVERALL BUDGET ERROR =           -839.06           BUDGET ERROR =            -61.98


  PERCENT DISCREPANCY =             -0.13    PERCENT DISCREPANCY =             -0.04



1
 SUMMARY VOLUMETRIC BUDGET FOR GSFLOW 
 DATE: 10 21 1980              CUMULATIVE TIME STEP:      21
 MODFLOW STRESS PERIOD      2     CURRENT TIME STEP:      21     ITERATIONS:       6

 -----------------------------------------------------------------------------------

   CUMULATIVE VOLUMES               L**3   RATES FOR THIS TIME STEP           L**3/T
   ------------------                      ------------------------

                                     IN                                         IN
                                     --                                         --
        PRECIPITATION =         733157.03          PRECIPITATION =                  
           STREAMFLOW =                               STREAMFLOW =                  
     GW BOUNDARY FLOW =                         GW BOUNDARY FLOW =                  


                                    OUT                                        OUT
                                    ---                                        ---
   EVAPOTRANSPIRATION =         374214.72     EVAPOTRANSPIRATION =          30714.77
           STREAMFLOW =         146202.75             STREAMFLOW =           6989.13
     GW BOUNDARY FLOW =          13624.75       GW BOUNDARY FLOW =            648.75

   INFLOWS - OUTFLOWS =         199114.81     INFLOWS - OUTFLOWS =         -38352.65
             --------                                   --------

 TOTAL STORAGE CHANGE =         200401.48         STORAGE CHANGE =         -38284.00
       --------------                             --------------
         LAND SURFACE =                             LAND SURFACE =                  
            SOIL ZONE =         665600.97              SOIL ZONE =         -16428.91
     UNSATURATED ZONE =        -418664.31       UNSATURATED ZONE =         -18827.03
       SATURATED ZONE =         -46535.19         SATURATED ZONE =          -3028.05

 OVERALL BUDGET ERROR =          -1286.67           BUDGET ERROR =            -68.65


  PERCENT DISCREPANCY =             -0.18    PERCENT DISCREPANCY =             -0.18



1
 SUMMARY VOLUMETRIC BUDGET FOR GSFLOW 
 DATE: 10 28 1980              CUMULATIVE TIME STEP:      28
 MODFLOW STRESS PERIOD      2     CURRENT TIME STEP:      28     ITERATIONS:       6

 -----------------------------------------------------------------------------------

   CUMULATIVE VOLUMES               L**3   RATES FOR THIS TIME STEP           L**3/T
   ------------------                      ------------------------

                                     IN                                         IN
                                     --                                         --
        PRECIPITATION =        1070903.53          PRECIPITATION =                  
           STREAMFLOW =                               STREAMFLOW =                  
     GW BOUNDARY FLOW =                         GW BOUNDARY FLOW =                  


                                    OUT                                        OUT
                                    ---                                        ---
   EVAPOTRANSPIRATION =         546673.78     EVAPOTRANSPIRATION =          24800.27
           STREAMFLOW =         201241.78             STREAMFLOW =           8022.48
     GW BOUNDARY FLOW =          18166.08       GW BOUNDARY FLOW =            648.81

   INFLOWS - OUTFLOWS =         304821.88     INFLOWS - OUTFLOWS =         -33471.55
             --------                                   --------

 TOTAL STORAGE CHANGE =         306614.92         STORAGE CHANGE =         -33398.17
       --------------                             --------------
         LAND SURFACE =          20571.53           LAND SURFACE =         -29890.85
            SOIL ZONE =         902442.44              SOIL ZONE =          17979.42
     UNSATURATED ZONE =        -547250.73       UNSATURATED ZONE =         -17999.39
       SATURATED ZONE =         -69148.32         SATURATED ZONE =          -3487.35

 OVERALL BUDGET ERROR =          -1793.04           BUDGET ERROR =            -73.39


  PERCENT DISCREPANCY =             -0.17    PERCENT DISCREPANCY =             -0.22



1
 SUMMARY VOLUMETRIC BUDGET FOR GSFLOW 
 DATE: 11 04 1980              CUMULATIVE TIME STEP:      35
 MODFLOW STRESS PERIOD      2     CURRENT TIME STEP:      35     ITERATIONS:       8

 -----------------------------------------------------------------------------------

   CUMULATIVE VOLUMES               L**3   RATES FOR THIS TIME STEP           L**3/T
   ------------------                      ------------------------

                                     IN                                         IN
                                     --                                         --
        PRECIPITATION =        1070903.53          PRECIPITATION =                  
           STREAMFLOW =                               STREAMFLOW =                  
     GW BOUNDARY FLOW =                         GW BOUNDARY FLOW =                  


                                    OUT                                        OUT
                                    ---                                        ---
   EVAPOTRANSPIRATION =         814376.70     EVAPOTRANSPIRATION =          35711.10
           STREAMFLOW =         254113.91             STREAMFLOW =           7091.82
     GW BOUNDARY FLOW =          22707.14       GW BOUNDARY FLOW =            648.65

   INFLOWS - OUTFLOWS =         -20294.23     INFLOWS - OUTFLOWS =         -43451.57
             --------                                   --------

 TOTAL STORAGE CHANGE =         -18084.40         STORAGE CHANGE =         -43399.85
       --------------                             --------------
         LAND SURFACE =                             LAND SURFACE =                  
            SOIL ZONE =         748946.45              SOIL ZONE =         -21869.64
     UNSATURATED ZONE =        -670662.22       UNSATURATED ZONE =         -17362.99
       SATURATED ZONE =         -96368.64         SATURATED ZONE =          -4167.21

 OVERALL BUDGET ERROR =          -2209.83           BUDGET ERROR =            -51.73


  PERCENT DISCREPANCY =             -0.20    PERCENT DISCREPANCY =             -0.12



1
 SUMMARY VOLUMETRIC BUDGET FOR GSFLOW 
 DATE: 11 11 1980              CUMULATIVE TIME STEP:      42
 MODFLOW STRESS PERIOD      2     CURRENT TIME STEP:      42     ITERATIONS:       7

 -----------------------------------------------------------------------------------

   CUMULATIVE VOLUMES               L**3   RATES FOR THIS TIME STEP           L**3/T
   ------------------                      ------------------------

                                     IN                                         IN
                                     --                                         --
        PRECIPITATION =        1573762.54          PRECIPITATION =         255182.19
           STREAMFLOW =                               STREAMFLOW =                  
     GW BOUNDARY FLOW =                         GW BOUNDARY FLOW =                  


                                    OUT                                        OUT
                                    ---                                        ---
   EVAPOTRANSPIRATION =         998338.67     EVAPOTRANSPIRATION =          15410.74
           STREAMFLOW =         311068.64             STREAMFLOW =          10936.45
     GW BOUNDARY FLOW =          27247.98       GW BOUNDARY FLOW =            648.87

   INFLOWS - OUTFLOWS =         237107.25     INFLOWS - OUTFLOWS =         228186.14
             --------                                   --------

 TOTAL STORAGE CHANGE =         239782.87         STORAGE CHANGE =         228243.18
       --------------                             --------------
         LAND SURFACE =          76960.22           LAND SURFACE =          76747.38
            SOIL ZONE =        1078234.28              SOIL ZONE =         172100.76
     UNSATURATED ZONE =        -789154.99       UNSATURATED ZONE =         -16539.36
       SATURATED ZONE =        -126256.65         SATURATED ZONE =          -4065.59

 OVERALL BUDGET ERROR =          -2675.61           BUDGET ERROR =            -57.05


  PERCENT DISCREPANCY =             -0.17    PERCENT DISCREPANCY =             -0.02



1
 SUMMARY VOLUMETRIC BUDGET FOR GSFLOW 
 DATE: 11 18 1980              CUMULATIVE TIME STEP:      49
 MODFLOW STRESS PERIOD      2     CURRENT TIME STEP:      49     ITERATIONS:       7

 -----------------------------------------------------------------------------------

   CUMULATIVE VOLUMES               L**3   RATES FOR THIS TIME STEP           L**3/T
   ------------------                      ------------------------

                                     IN                                         IN
                                     --                                         --
        PRECIPITATION =        1573762.54          PRECIPITATION =                  
           STREAMFLOW =                               STREAMFLOW =                  
     GW BOUNDARY FLOW =                         GW BOUNDARY FLOW =                  


                                    OUT                                        OUT
                                    ---                                        ---
   EVAPOTRANSPIRATION =        1087406.81     EVAPOTRANSPIRATION =          14988.17
           STREAMFLOW =         374791.83             STREAMFLOW =           9429.56
     GW BOUNDARY FLOW =          31789.98       GW BOUNDARY FLOW =            648.88

   INFLOWS - OUTFLOWS =          79773.92     INFLOWS - OUTFLOWS =         -25066.60
             --------                                   --------

 TOTAL STORAGE CHANGE =          82995.41         STORAGE CHANGE =         -25004.19
       --------------                             --------------
         LAND SURFACE =           8139.47           LAND SURFACE =          -4965.50
            SOIL ZONE =        1136791.70              SOIL ZONE =            829.92
     UNSATURATED ZONE =        -903076.50       UNSATURATED ZONE =         -16032.73
       SATURATED ZONE =        -158859.26         SATURATED ZONE =          -4835.87

 OVERALL BUDGET ERROR =          -3221.49           BUDGET ERROR =            -62.41


  PERCENT DISCREPANCY =             -0.20    PERCENT DISCREPANCY =             -0.25



1
 SUMMARY VOLUMETRIC BUDGET FOR GSFLOW 
 DATE: 11 25 1980              CUMULATIVE TIME STEP:      56
 MODFLOW STRESS PERIOD      2     CURRENT TIME STEP:      56     ITERATIONS:       8

 -----------------------------------------------------------------------------------

   CUMULATIVE VOLUMES               L**3   RATES FOR THIS TIME STEP           L**3/T
   ------------------                      ------------------------

                                     IN                                         IN
                                     --                                         --
        PRECIPITATION =        1648816.13          PRECIPITATION =                  
           STREAMFLOW =                               STREAMFLOW =                  
     GW BOUNDARY FLOW =                         GW BOUNDARY FLOW =                  


                                    OUT                                        OUT
                                    ---                                        ---
   EVAPOTRANSPIRATION =        1162044.48     EVAPOTRANSPIRATION =           9313.15
           STREAMFLOW =         443038.98             STREAMFLOW =          10152.85
     GW BOUNDARY FLOW =          36332.39       GW BOUNDARY FLOW =            648.96

   INFLOWS - OUTFLOWS =           7400.28     INFLOWS - OUTFLOWS =         -20114.96
             --------                                   --------

 TOTAL STORAGE CHANGE =          11044.63         STORAGE CHANGE =         -20056.63
       --------------                             --------------
         LAND SURFACE =          54136.41           LAND SURFACE =          -9258.02
            SOIL ZONE =        1164546.91              SOIL ZONE =           9926.82
     UNSATURATED ZONE =       -1012768.69       UNSATURATED ZONE =         -15420.20
       SATURATED ZONE =        -194870.00         SATURATED ZONE =          -5305.23

 OVERALL BUDGET ERROR =          -3644.35           BUDGET ERROR =            -58.33


  PERCENT DISCREPANCY =             -0.22    PERCENT DISCREPANCY =             -0.29



1
 SUMMARY VOLUMETRIC BUDGET FOR GSFLOW 
 DATE: 12 02 1980              CUMULATIVE TIME STEP:      63
 MODFLOW STRESS PERIOD      2     CURRENT TIME STEP:      63     ITERATIONS:       7

 -----------------------------------------------------------------------------------

   CUMULATIVE VOLUMES               L**3   RATES FOR THIS TIME STEP           L**3/T
   ------------------                      ------------------------

                                     IN                                         IN
                                     --                                         --
        PRECIPITATION =        2076621.55          PRECIPITATION =                  
           STREAMFLOW =                               STREAMFLOW =                  
     GW BOUNDARY FLOW =                         GW BOUNDARY FLOW =                  


                                    OUT                                        OUT
                                    ---                                        ---
   EVAPOTRANSPIRATION =        1345734.04     EVAPOTRANSPIRATION =          33736.39
           STREAMFLOW =         529815.43             STREAMFLOW =          15725.49
     GW BOUNDARY FLOW =          40876.54       GW BOUNDARY FLOW =            649.48

   INFLOWS - OUTFLOWS =         160195.55     INFLOWS - OUTFLOWS =         -50111.36
             --------                                   --------

 TOTAL STORAGE CHANGE =         164239.23         STORAGE CHANGE =         -50049.34
       --------------                             --------------
         LAND SURFACE =         157031.20           LAND SURFACE =         -76789.76
            SOIL ZONE =        1351993.61              SOIL ZONE =          44090.97
     UNSATURATED ZONE =       -1114102.66       UNSATURATED ZONE =         -12812.84
       SATURATED ZONE =        -230682.92         SATURATED ZONE =          -4537.71

 OVERALL BUDGET ERROR =          -4043.69           BUDGET ERROR =            -62.02


  PERCENT DISCREPANCY =             -0.19    PERCENT DISCREPANCY =             -0.12



1
 SUMMARY VOLUMETRIC BUDGET FOR GSFLOW 
 DATE: 12 09 1980              CUMULATIVE TIME STEP:      70
 MODFLOW STRESS PERIOD      2     CURRENT TIME STEP:      70     ITERATIONS:       8

 -----------------------------------------------------------------------------------

   CUMULATIVE VOLUMES               L**3   RATES FOR THIS TIME STEP           L**3/T
   ------------------                      ------------------------

                                     IN                                         IN
                                     --                                         --
        PRECIPITATION =        4284363.63          PRECIPITATION =                  
           STREAMFLOW =                               STREAMFLOW =                  
     GW BOUNDARY FLOW =                         GW BOUNDARY FLOW =                  


                                    OUT                                        OUT
                                    ---                                        ---
   EVAPOTRANSPIRATION =        1371372.81     EVAPOTRANSPIRATION =           3258.35
           STREAMFLOW =         632188.37             STREAMFLOW =          14919.04
     GW BOUNDARY FLOW =          45423.76       GW BOUNDARY FLOW =            649.70

   INFLOWS - OUTFLOWS =        2235378.68     INFLOWS - OUTFLOWS =         -18827.09
             --------                                   --------

 TOTAL STORAGE CHANGE =        2239816.41         STORAGE CHANGE =         -18781.09
       --------------                             --------------
         LAND SURFACE =        2337504.39           LAND SURFACE =          -3258.35
            SOIL ZONE =        1384353.40              SOIL ZONE =           4693.89
     UNSATURATED ZONE =       -1212061.79       UNSATURATED ZONE =         -14206.03
       SATURATED ZONE =        -269979.59         SATURATED ZONE =          -6010.60

 OVERALL BUDGET ERROR =          -4437.72           BUDGET ERROR =            -46.00


  PERCENT DISCREPANCY =             -0.10    PERCENT DISCREPANCY =             -0.24



1
 SUMMARY VOLUMETRIC BUDGET FOR GSFLOW 
 DATE: 12 16 1980              CUMULATIVE TIME STEP:      77
 MODFLOW STRESS PERIOD      2     CURRENT TIME STEP:      77     ITERATIONS:       7

 -----------------------------------------------------------------------------------

   CUMULATIVE VOLUMES               L**3   RATES FOR THIS TIME STEP           L**3/T
   ------------------                      ------------------------

                                     IN                                         IN
                                     --                                         --
        PRECIPITATION =        4284363.63          PRECIPITATION =                  
           STREAMFLOW =                               STREAMFLOW =                  
     GW BOUNDARY FLOW =                         GW BOUNDARY FLOW =                  


                                    OUT                                        OUT
                                    ---                                        ---
   EVAPOTRANSPIRATION =        1515997.85     EVAPOTRANSPIRATION =          34476.11
           STREAMFLOW =         755855.28             STREAMFLOW =          25704.26
     GW BOUNDARY FLOW =          49972.76       GW BOUNDARY FLOW =            650.31

   INFLOWS - OUTFLOWS =        1962537.74     INFLOWS - OUTFLOWS =         -60830.67
             --------                                   --------

 TOTAL STORAGE CHANGE =        1967357.19         STORAGE CHANGE =         -60771.07
       --------------                             --------------
         LAND SURFACE =        2017009.25           LAND SURFACE =        -133032.47
            SOIL ZONE =        1561951.34              SOIL ZONE =          85365.24
     UNSATURATED ZONE =       -1301451.56       UNSATURATED ZONE =          -8793.06
       SATURATED ZONE =        -310151.84         SATURATED ZONE =          -4310.78

 OVERALL BUDGET ERROR =          -4819.45           BUDGET ERROR =            -59.60


  PERCENT DISCREPANCY =             -0.11    PERCENT DISCREPANCY =             -0.10



1
 SUMMARY VOLUMETRIC BUDGET FOR GSFLOW 
 DATE: 12 23 1980              CUMULATIVE TIME STEP:      84
 MODFLOW STRESS PERIOD      2     CURRENT TIME STEP:      84     ITERATIONS:       9

 -----------------------------------------------------------------------------------

   CUMULATIVE VOLUMES               L**3   RATES FOR THIS TIME STEP           L**3/T
   ------------------                      ------------------------

                                     IN                                         IN
                                     --                                         --
        PRECIPITATION =        4516757.54          PRECIPITATION =                  
           STREAMFLOW =                               STREAMFLOW =                  
     GW BOUNDARY FLOW =                         GW BOUNDARY FLOW =                  


                                    OUT                                        OUT
                                    ---                                        ---
   EVAPOTRANSPIRATION =        1724223.97     EVAPOTRANSPIRATION =          35848.50
           STREAMFLOW =         991036.87             STREAMFLOW =          31517.73
     GW BOUNDARY FLOW =          54533.77       GW BOUNDARY FLOW =            652.04

   INFLOWS - OUTFLOWS =        1746962.92     INFLOWS - OUTFLOWS =         -68018.27
             --------                                   --------

 TOTAL STORAGE CHANGE =        1752040.22         STORAGE CHANGE =         -67990.11
       --------------                             --------------
         LAND SURFACE =        1391476.45           LAND SURFACE =         -50626.27
            SOIL ZONE =        2035492.59              SOIL ZONE =          -8887.36
     UNSATURATED ZONE =       -1337426.07       UNSATURATED ZONE =          -4059.90
       SATURATED ZONE =        -337502.76         SATURATED ZONE =          -4416.58

 OVERALL BUDGET ERROR =          -5077.30           BUDGET ERROR =            -28.16


  PERCENT DISCREPANCY =             -0.11    PERCENT DISCREPANCY =             -0.04



1
 SUMMARY VOLUMETRIC BUDGET FOR GSFLOW 
 DATE: 12 30 1980              CUMULATIVE TIME STEP:      91
 MODFLOW STRESS PERIOD      2     CURRENT TIME STEP:      91     ITERATIONS:      11

 -----------------------------------------------------------------------------------

   CUMULATIVE VOLUMES               L**3   RATES FOR THIS TIME STEP           L**3/T
   ------------------                      ------------------------

                                     IN                                         IN
                                     --                                         --
        PRECIPITATION =        4516757.54          PRECIPITATION =                  
           STREAMFLOW =                               STREAMFLOW =                  
     GW BOUNDARY FLOW =                         GW BOUNDARY FLOW =                  


                                    OUT                                        OUT
                                    ---                                        ---
   EVAPOTRANSPIRATION =        2091946.23     EVAPOTRANSPIRATION =          47015.27
           STREAMFLOW =        1247142.03             STREAMFLOW =          28286.94
     GW BOUNDARY FLOW =          59101.44       GW BOUNDARY FLOW =            652.50

   INFLOWS - OUTFLOWS =        1118567.83     INFLOWS - OUTFLOWS =         -75954.71
             --------                                   --------

 TOTAL STORAGE CHANGE =        1123764.33         STORAGE CHANGE =         -75945.93
       --------------                             --------------
         LAND SURFACE =         579625.21           LAND SURFACE =         -42433.18
            SOIL ZONE =        2238706.94              SOIL ZONE =         -26087.08
     UNSATURATED ZONE =       -1334376.83       UNSATURATED ZONE =          -3538.97
       SATURATED ZONE =        -360190.99         SATURATED ZONE =          -3886.70

 OVERALL BUDGET ERROR =          -5196.50           BUDGET ERROR =             -8.78


  PERCENT DISCREPANCY =             -0.11    PERCENT DISCREPANCY =             -0.01



1
 SUMMARY VOLUMETRIC BUDGET FOR GSFLOW 
 DATE: 01 06 1981              CUMULATIVE TIME STEP:      98
 MODFLOW STRESS PERIOD      2     CURRENT TIME STEP:      98     ITERATIONS:       8

 -----------------------------------------------------------------------------------

   CUMULATIVE VOLUMES               L**3   RATES FOR THIS TIME STEP           L**3/T
   ------------------                      ------------------------

                                     IN                                         IN
                                     --                                         --
        PRECIPITATION =        5004445.43          PRECIPITATION =                  
           STREAMFLOW =                               STREAMFLOW =                  
     GW BOUNDARY FLOW =                         GW BOUNDARY FLOW =                  


                                    OUT                                        OUT
                                    ---                                        ---
   EVAPOTRANSPIRATION =        2309633.39     EVAPOTRANSPIRATION =          18975.60
           STREAMFLOW =        1398161.48             STREAMFLOW =          20335.33
     GW BOUNDARY FLOW =          63663.05       GW BOUNDARY FLOW =            651.18

   INFLOWS - OUTFLOWS =        1232987.51     INFLOWS - OUTFLOWS =         -39962.11
             --------                                   --------

 TOTAL STORAGE CHANGE =        1238327.43         STORAGE CHANGE =         -39930.57
       --------------                             --------------
         LAND SURFACE =         840075.39           LAND SURFACE =         -25549.72
            SOIL ZONE =        2200165.17              SOIL ZONE =           3090.71
     UNSATURATED ZONE =       -1404051.47       UNSATURATED ZONE =         -11591.24
       SATURATED ZONE =        -397861.66         SATURATED ZONE =          -5880.32

 OVERALL BUDGET ERROR =          -5339.92           BUDGET ERROR =            -31.54


  PERCENT DISCREPANCY =             -0.11    PERCENT DISCREPANCY =             -0.08



1
 SUMMARY VOLUMETRIC BUDGET FOR GSFLOW 
 DATE: 01 13 1981              CUMULATIVE TIME STEP:     105
 MODFLOW STRESS PERIOD      2     CURRENT TIME STEP:     105     ITERATIONS:       8

 -----------------------------------------------------------------------------------

   CUMULATIVE VOLUMES               L**3   RATES FOR THIS TIME STEP           L**3/T
   ------------------                      ------------------------

                                     IN                                         IN
                                     --                                         --
        PRECIPITATION =        5004445.43          PRECIPITATION =                  
           STREAMFLOW =                               STREAMFLOW =                  
     GW BOUNDARY FLOW =                         GW BOUNDARY FLOW =                  


                                    OUT                                        OUT
                                    ---                                        ---
   EVAPOTRANSPIRATION =        2511377.02     EVAPOTRANSPIRATION =          41906.73
           STREAMFLOW =        1543801.54             STREAMFLOW =          20114.36
     GW BOUNDARY FLOW =          68219.91       GW BOUNDARY FLOW =            650.83

   INFLOWS - OUTFLOWS =         881046.96     INFLOWS - OUTFLOWS =         -62671.92
             --------                                   --------

 TOTAL STORAGE CHANGE =         886591.34         STORAGE CHANGE =         -62637.61
       --------------                             --------------
         LAND SURFACE =         624161.64           LAND SURFACE =         -38673.92
            SOIL ZONE =        2177302.54              SOIL ZONE =          -8484.54
     UNSATURATED ZONE =       -1473867.49       UNSATURATED ZONE =          -9363.66
       SATURATED ZONE =        -441005.36         SATURATED ZONE =          -6115.49

 OVERALL BUDGET ERROR =          -5544.38           BUDGET ERROR =            -34.31


  PERCENT DISCREPANCY =             -0.11    PERCENT DISCREPANCY =             -0.05



1
 SUMMARY VOLUMETRIC BUDGET FOR GSFLOW 
 DATE: 01 20 1981              CUMULATIVE TIME STEP:     112
 MODFLOW STRESS PERIOD      2     CURRENT TIME STEP:     112     ITERATIONS:      11

 -----------------------------------------------------------------------------------

   CUMULATIVE VOLUMES               L**3   RATES FOR THIS TIME STEP           L**3/T
   ------------------                      ------------------------

                                     IN                                         IN
                                     --                                         --
        PRECIPITATION =        5170466.84          PRECIPITATION =          41505.35
           STREAMFLOW =                               STREAMFLOW =                  
     GW BOUNDARY FLOW =                         GW BOUNDARY FLOW =                  


                                    OUT                                        OUT
                                    ---                                        ---
   EVAPOTRANSPIRATION =        2776274.46     EVAPOTRANSPIRATION =          31075.54
           STREAMFLOW =        1686846.03             STREAMFLOW =          20142.31
     GW BOUNDARY FLOW =          72774.87       GW BOUNDARY FLOW =            650.65

   INFLOWS - OUTFLOWS =         634571.48     INFLOWS - OUTFLOWS =         -10363.15
             --------                                   --------

 TOTAL STORAGE CHANGE =         640391.72         STORAGE CHANGE =         -10348.48
       --------------                             --------------
         LAND SURFACE =         464145.88           LAND SURFACE =           8501.89
            SOIL ZONE =        2169759.08              SOIL ZONE =          -9798.71
     UNSATURATED ZONE =       -1507450.07       UNSATURATED ZONE =          -2398.51
       SATURATED ZONE =        -486063.18         SATURATED ZONE =          -6653.15

 OVERALL BUDGET ERROR =          -5820.24           BUDGET ERROR =            -14.67


  PERCENT DISCREPANCY =             -0.11    PERCENT DISCREPANCY =             -0.03



1
 SUMMARY VOLUMETRIC BUDGET FOR GSFLOW 
 DATE: 01 27 1981              CUMULATIVE TIME STEP:     119
 MODFLOW STRESS PERIOD      2     CURRENT TIME STEP:     119     ITERATIONS:       8

 -----------------------------------------------------------------------------------

   CUMULATIVE VOLUMES               L**3   RATES FOR THIS TIME STEP           L**3/T
   ------------------                      ------------------------

                                     IN                                         IN
                                     --                                         --
        PRECIPITATION =        8646540.08          PRECIPITATION =        2936503.63
           STREAMFLOW =                               STREAMFLOW =                  
     GW BOUNDARY FLOW =                         GW BOUNDARY FLOW =                  


                                    OUT                                        OUT
                                    ---                                        ---
   EVAPOTRANSPIRATION =        2998347.36     EVAPOTRANSPIRATION =          12639.57
           STREAMFLOW =        1831318.08             STREAMFLOW =          18645.26
     GW BOUNDARY FLOW =          77329.17       GW BOUNDARY FLOW =            650.43

   INFLOWS - OUTFLOWS =        3739545.47     INFLOWS - OUTFLOWS =        2904568.36
             --------                                   --------

 TOTAL STORAGE CHANGE =        3745506.20         STORAGE CHANGE =        2904594.77
       --------------                             --------------
         LAND SURFACE =        3592460.11           LAND SURFACE =        2923864.12
            SOIL ZONE =        2190149.61              SOIL ZONE =          -6280.19
     UNSATURATED ZONE =       -1505496.94       UNSATURATED ZONE =          -6120.84
       SATURATED ZONE =        -531606.58         SATURATED ZONE =          -6868.32

 OVERALL BUDGET ERROR =          -5960.73           BUDGET ERROR =            -26.41


  PERCENT DISCREPANCY =             -0.07    PERCENT DISCREPANCY =             -0.00



1
 SUMMARY VOLUMETRIC BUDGET FOR GSFLOW 
 DATE: 02 03 1981              CUMULATIVE TIME STEP:     126
 MODFLOW STRESS PERIOD      2     CURRENT TIME STEP:     126     ITERATIONS:       8

 -----------------------------------------------------------------------------------

   CUMULATIVE VOLUMES               L**3   RATES FOR THIS TIME STEP           L**3/T
   ------------------                      ------------------------

                                     IN                                         IN
                                     --                                         --
        PRECIPITATION =        1.1739D+07          PRECIPITATION =                  
           STREAMFLOW =                               STREAMFLOW =                  
     GW BOUNDARY FLOW =                         GW BOUNDARY FLOW =                  


                                    OUT                                        OUT
                                    ---                                        ---
   EVAPOTRANSPIRATION =        3033538.72     EVAPOTRANSPIRATION =           7106.06
           STREAMFLOW =        1958444.42             STREAMFLOW =          18060.89
     GW BOUNDARY FLOW =          81881.31       GW BOUNDARY FLOW =            650.26

   INFLOWS - OUTFLOWS =        6664824.32     INFLOWS - OUTFLOWS =         -25817.21
             --------                                   --------

 TOTAL STORAGE CHANGE =        6670940.05         STORAGE CHANGE =         -25790.13
       --------------                             --------------
         LAND SURFACE =        6649417.45           LAND SURFACE =          -7106.06
            SOIL ZONE =        2182100.33              SOIL ZONE =            508.74
     UNSATURATED ZONE =       -1577587.62       UNSATURATED ZONE =         -11480.97
       SATURATED ZONE =        -582990.11         SATURATED ZONE =          -7711.83

 OVERALL BUDGET ERROR =          -6115.72           BUDGET ERROR =            -27.08


  PERCENT DISCREPANCY =             -0.05    PERCENT DISCREPANCY =             -0.10



1
 SUMMARY VOLUMETRIC BUDGET FOR GSFLOW 
 DATE: 02 10 1981              CUMULATIVE TIME STEP:     133
 MODFLOW STRESS PERIOD      2     CURRENT TIME STEP:     133     ITERATIONS:       7

 -----------------------------------------------------------------------------------

   CUMULATIVE VOLUMES               L**3   RATES FOR THIS TIME STEP           L**3/T
   ------------------                      ------------------------

                                     IN                                         IN
                                     --                                         --
        PRECIPITATION =        1.1838D+07          PRECIPITATION =                  
           STREAMFLOW =                               STREAMFLOW =                  
     GW BOUNDARY FLOW =                         GW BOUNDARY FLOW =                  


                                    OUT                                        OUT
                                    ---                                        ---
   EVAPOTRANSPIRATION =        3154642.23     EVAPOTRANSPIRATION =          32343.27
           STREAMFLOW =        2085080.75             STREAMFLOW =          18110.58
     GW BOUNDARY FLOW =          86433.12       GW BOUNDARY FLOW =            650.25

   INFLOWS - OUTFLOWS =        6512097.17     INFLOWS - OUTFLOWS =         -51104.10
             --------                                   --------

 TOTAL STORAGE CHANGE =        6518536.99         STORAGE CHANGE =         -51044.40
       --------------                             --------------
         LAND SURFACE =        6627878.44           LAND SURFACE =         -32343.27
            SOIL ZONE =        2186059.79              SOIL ZONE =            523.36
     UNSATURATED ZONE =       -1655555.98       UNSATURATED ZONE =         -10795.76
       SATURATED ZONE =        -639845.25         SATURATED ZONE =          -8428.72

 OVERALL BUDGET ERROR =          -6439.82           BUDGET ERROR =            -59.70


  PERCENT DISCREPANCY =             -0.05    PERCENT DISCREPANCY =             -0.12



1
 SUMMARY VOLUMETRIC BUDGET FOR GSFLOW 
 DATE: 02 17 1981              CUMULATIVE TIME STEP:     140
 MODFLOW STRESS PERIOD      2     CURRENT TIME STEP:     140     ITERATIONS:      15

 -----------------------------------------------------------------------------------

   CUMULATIVE VOLUMES               L**3   RATES FOR THIS TIME STEP           L**3/T
   ------------------                      ------------------------

                                     IN                                         IN
                                     --                                         --
        PRECIPITATION =        1.2765D+07          PRECIPITATION =          68929.28
           STREAMFLOW =                               STREAMFLOW =                  
     GW BOUNDARY FLOW =                         GW BOUNDARY FLOW =                  


                                    OUT                                        OUT
                                    ---                                        ---
   EVAPOTRANSPIRATION =        3480409.12     EVAPOTRANSPIRATION =          59831.41
           STREAMFLOW =        2605777.65             STREAMFLOW =         121413.66
     GW BOUNDARY FLOW =          91005.98       GW BOUNDARY FLOW =            656.65

   INFLOWS - OUTFLOWS =        6587776.35     INFLOWS - OUTFLOWS =        -112972.44
             --------                                   --------

 TOTAL STORAGE CHANGE =        6594437.07         STORAGE CHANGE =        -112967.43
       --------------                             --------------
         LAND SURFACE =        5733342.74           LAND SURFACE =        -263707.47
            SOIL ZONE =        2945963.51              SOIL ZONE =          72918.02
     UNSATURATED ZONE =       -1426389.32       UNSATURATED ZONE =          75632.42
       SATURATED ZONE =        -658479.86         SATURATED ZONE =           2189.61

 OVERALL BUDGET ERROR =          -6660.72           BUDGET ERROR =             -5.01


  PERCENT DISCREPANCY =             -0.05    PERCENT DISCREPANCY =             -0.00



1
 SUMMARY VOLUMETRIC BUDGET FOR GSFLOW 
 DATE: 02 24 1981              CUMULATIVE TIME STEP:     147
 MODFLOW STRESS PERIOD      2     CURRENT TIME STEP:     147     ITERATIONS:      14

 -----------------------------------------------------------------------------------

   CUMULATIVE VOLUMES               L**3   RATES FOR THIS TIME STEP           L**3/T
   ------------------                      ------------------------

                                     IN                                         IN
                                     --                                         --
        PRECIPITATION =        1.3179D+07          PRECIPITATION =         344646.37
           STREAMFLOW =                               STREAMFLOW =                  
     GW BOUNDARY FLOW =                         GW BOUNDARY FLOW =                  


                                    OUT                                        OUT
                                    ---                                        ---
   EVAPOTRANSPIRATION =        3812785.22     EVAPOTRANSPIRATION =          18156.56
           STREAMFLOW =        3160263.04             STREAMFLOW =          50195.16
     GW BOUNDARY FLOW =          95598.63       GW BOUNDARY FLOW =            655.07

   INFLOWS - OUTFLOWS =        6109897.86     INFLOWS - OUTFLOWS =         275639.57
             --------                                   --------

 TOTAL STORAGE CHANGE =        6116482.48         STORAGE CHANGE =         275626.15
       --------------                             --------------
         LAND SURFACE =        5134001.56           LAND SURFACE =         302140.01
            SOIL ZONE =        2690487.95              SOIL ZONE =         -55972.87
     UNSATURATED ZONE =       -1071390.14       UNSATURATED ZONE =          27321.35
       SATURATED ZONE =        -636616.88         SATURATED ZONE =           2137.67

 OVERALL BUDGET ERROR =          -6584.62           BUDGET ERROR =             13.42


  PERCENT DISCREPANCY =             -0.05    PERCENT DISCREPANCY =              0.00



1
 SUMMARY VOLUMETRIC BUDGET FOR GSFLOW 
 DATE: 03 03 1981              CUMULATIVE TIME STEP:     154
 MODFLOW STRESS PERIOD      2     CURRENT TIME STEP:     154     ITERATIONS:      11

 -----------------------------------------------------------------------------------

   CUMULATIVE VOLUMES               L**3   RATES FOR THIS TIME STEP           L**3/T
   ------------------                      ------------------------

                                     IN                                         IN
                                     --                                         --
        PRECIPITATION =        1.3447D+07          PRECIPITATION =                  
           STREAMFLOW =                               STREAMFLOW =                  
     GW BOUNDARY FLOW =                         GW BOUNDARY FLOW =                  


                                    OUT                                        OUT
                                    ---                                        ---
   EVAPOTRANSPIRATION =        3959571.18     EVAPOTRANSPIRATION =          40644.00
           STREAMFLOW =        3381082.09             STREAMFLOW =          27138.45
     GW BOUNDARY FLOW =         100171.22       GW BOUNDARY FLOW =            652.27

   INFLOWS - OUTFLOWS =        6005778.55     INFLOWS - OUTFLOWS =         -68434.71
             --------                                   --------

 TOTAL STORAGE CHANGE =        6012190.91         STORAGE CHANGE =         -68459.25
       --------------                             --------------
         LAND SURFACE =        5236571.47           LAND SURFACE =         -57449.18
            SOIL ZONE =        2485032.15              SOIL ZONE =            470.34
     UNSATURATED ZONE =       -1067157.14       UNSATURATED ZONE =          -9159.60
       SATURATED ZONE =        -642255.57         SATURATED ZONE =          -2320.82

 OVERALL BUDGET ERROR =          -6412.36           BUDGET ERROR =             24.54


  PERCENT DISCREPANCY =             -0.05    PERCENT DISCREPANCY =              0.04



1
 SUMMARY VOLUMETRIC BUDGET FOR GSFLOW 
 DATE: 03 10 1981              CUMULATIVE TIME STEP:     161
 MODFLOW STRESS PERIOD      2     CURRENT TIME STEP:     161     ITERATIONS:      11

 -----------------------------------------------------------------------------------

   CUMULATIVE VOLUMES               L**3   RATES FOR THIS TIME STEP           L**3/T
   ------------------                      ------------------------

                                     IN                                         IN
                                     --                                         --
        PRECIPITATION =        1.3493D+07          PRECIPITATION =                  
           STREAMFLOW =                               STREAMFLOW =                  
     GW BOUNDARY FLOW =                         GW BOUNDARY FLOW =                  


                                    OUT                                        OUT
                                    ---                                        ---
   EVAPOTRANSPIRATION =        4271431.31     EVAPOTRANSPIRATION =          67192.35
           STREAMFLOW =        3602246.75             STREAMFLOW =          40300.19
     GW BOUNDARY FLOW =         104736.24       GW BOUNDARY FLOW =            652.70

   INFLOWS - OUTFLOWS =        5514526.85     INFLOWS - OUTFLOWS =        -108145.23
             --------                                   --------

 TOTAL STORAGE CHANGE =        5520827.41         STORAGE CHANGE =        -108159.18
       --------------                             --------------
         LAND SURFACE =        4665498.38           LAND SURFACE =        -147188.93
            SOIL ZONE =        2573553.79              SOIL ZONE =          24803.04
     UNSATURATED ZONE =       -1059882.91       UNSATURATED ZONE =          15421.45
       SATURATED ZONE =        -658341.85         SATURATED ZONE =          -1194.74

 OVERALL BUDGET ERROR =          -6300.55           BUDGET ERROR =             13.95


  PERCENT DISCREPANCY =             -0.05    PERCENT DISCREPANCY =              0.01



1
 SUMMARY VOLUMETRIC BUDGET FOR GSFLOW 
 DATE: 03 17 1981              CUMULATIVE TIME STEP:     168
 MODFLOW STRESS PERIOD      2     CURRENT TIME STEP:     168     ITERATIONS:       9

 -----------------------------------------------------------------------------------

   CUMULATIVE VOLUMES               L**3   RATES FOR THIS TIME STEP           L**3/T
   ------------------                      ------------------------

                                     IN                                         IN
                                     --                                         --
        PRECIPITATION =        1.3744D+07          PRECIPITATION =                  
           STREAMFLOW =                               STREAMFLOW =                  
     GW BOUNDARY FLOW =                         GW BOUNDARY FLOW =                  


                                    OUT                                        OUT
                                    ---                                        ---
   EVAPOTRANSPIRATION =        4588103.99     EVAPOTRANSPIRATION =          33262.65
           STREAMFLOW =        3818874.12             STREAMFLOW =          23613.36
     GW BOUNDARY FLOW =         109302.40       GW BOUNDARY FLOW =            651.78

   INFLOWS - OUTFLOWS =        5228210.38     INFLOWS - OUTFLOWS =         -57527.79
             --------                                   --------

 TOTAL STORAGE CHANGE =        5234408.21         STORAGE CHANGE =         -57539.28
       --------------                             --------------
         LAND SURFACE =        4532338.76           LAND SURFACE =         -32994.50
            SOIL ZONE =        2437557.77              SOIL ZONE =          -5001.41
     UNSATURATED ZONE =       -1056460.43       UNSATURATED ZONE =         -14848.15
       SATURATED ZONE =        -679027.90         SATURATED ZONE =          -4695.22

 OVERALL BUDGET ERROR =          -6197.83           BUDGET ERROR =             11.49


  PERCENT DISCREPANCY =             -0.05    PERCENT DISCREPANCY =              0.02



1
 SUMMARY VOLUMETRIC BUDGET FOR GSFLOW 
 DATE: 03 24 1981              CUMULATIVE TIME STEP:     175
 MODFLOW STRESS PERIOD      2     CURRENT TIME STEP:     175     ITERATIONS:       9

 -----------------------------------------------------------------------------------

   CUMULATIVE VOLUMES               L**3   RATES FOR THIS TIME STEP           L**3/T
   ------------------                      ------------------------

                                     IN                                         IN
                                     --                                         --
        PRECIPITATION =        1.4367D+07          PRECIPITATION =                  
           STREAMFLOW =                               STREAMFLOW =                  
     GW BOUNDARY FLOW =                         GW BOUNDARY FLOW =                  


                                    OUT                                        OUT
                                    ---                                        ---
   EVAPOTRANSPIRATION =        4907927.27     EVAPOTRANSPIRATION =          80764.17
           STREAMFLOW =        3983571.24             STREAMFLOW =          25036.05
     GW BOUNDARY FLOW =         113861.88       GW BOUNDARY FLOW =            651.26

   INFLOWS - OUTFLOWS =        5361385.13     INFLOWS - OUTFLOWS =        -106451.48
             --------                                   --------

 TOTAL STORAGE CHANGE =        5367548.96         STORAGE CHANGE =        -106450.30
       --------------                             --------------
         LAND SURFACE =        4882235.57           LAND SURFACE =         -56598.14
            SOIL ZONE =        2339298.73              SOIL ZONE =         -37991.54
     UNSATURATED ZONE =       -1136910.64       UNSATURATED ZONE =          -6409.91
       SATURATED ZONE =        -717074.69         SATURATED ZONE =          -5450.71

 OVERALL BUDGET ERROR =          -6163.83           BUDGET ERROR =             -1.18


  PERCENT DISCREPANCY =             -0.04    PERCENT DISCREPANCY =             -0.00



1
 SUMMARY VOLUMETRIC BUDGET FOR GSFLOW 
 DATE: 03 31 1981              CUMULATIVE TIME STEP:     182
 MODFLOW STRESS PERIOD      2     CURRENT TIME STEP:     182     ITERATIONS:      12

 -----------------------------------------------------------------------------------

   CUMULATIVE VOLUMES               L**3   RATES FOR THIS TIME STEP           L**3/T
   ------------------                      ------------------------

                                     IN                                         IN
                                     --                                         --
        PRECIPITATION =        1.5777D+07          PRECIPITATION =                  
           STREAMFLOW =                               STREAMFLOW =                  
     GW BOUNDARY FLOW =                         GW BOUNDARY FLOW =                  


                                    OUT                                        OUT
                                    ---                                        ---
   EVAPOTRANSPIRATION =        5296100.56     EVAPOTRANSPIRATION =          42424.06
           STREAMFLOW =        4431587.16             STREAMFLOW =          33655.02
     GW BOUNDARY FLOW =         118440.23       GW BOUNDARY FLOW =            653.15

   INFLOWS - OUTFLOWS =        5930620.04     INFLOWS - OUTFLOWS =         -76732.22
             --------                                   --------

 TOTAL STORAGE CHANGE =        5936683.26         STORAGE CHANGE =         -76750.16
       --------------                             --------------
         LAND SURFACE =        5101875.85           LAND SURFACE =         -42987.31
            SOIL ZONE =        2505867.40              SOIL ZONE =         -32435.15
     UNSATURATED ZONE =        -950235.88       UNSATURATED ZONE =           1114.05
       SATURATED ZONE =        -720824.11         SATURATED ZONE =          -2441.75

 OVERALL BUDGET ERROR =          -6063.22           BUDGET ERROR =             17.94


  PERCENT DISCREPANCY =             -0.04    PERCENT DISCREPANCY =              0.02



1
 SUMMARY VOLUMETRIC BUDGET FOR GSFLOW 
 DATE: 04 07 1981              CUMULATIVE TIME STEP:     189
 MODFLOW STRESS PERIOD      2     CURRENT TIME STEP:     189     ITERATIONS:      10

 -----------------------------------------------------------------------------------

   CUMULATIVE VOLUMES               L**3   RATES FOR THIS TIME STEP           L**3/T
   ------------------                      ------------------------

                                     IN                                         IN
                                     --                                         --
        PRECIPITATION =        1.6121D+07          PRECIPITATION =                  
           STREAMFLOW =                               STREAMFLOW =                  
     GW BOUNDARY FLOW =                         GW BOUNDARY FLOW =                  


                                    OUT                                        OUT
                                    ---                                        ---
   EVAPOTRANSPIRATION =        5890549.37     EVAPOTRANSPIRATION =          97287.85
           STREAMFLOW =        4726400.44             STREAMFLOW =          42143.11
     GW BOUNDARY FLOW =         123013.17       GW BOUNDARY FLOW =            653.55

   INFLOWS - OUTFLOWS =        5381504.63     INFLOWS - OUTFLOWS =        -140084.52
             --------                                   --------

 TOTAL STORAGE CHANGE =        5387439.71         STORAGE CHANGE =        -140106.45
       --------------                             --------------
         LAND SURFACE =        4536824.58           LAND SURFACE =        -138203.79
            SOIL ZONE =        2467307.16              SOIL ZONE =         -11864.71
     UNSATURATED ZONE =        -886397.97       UNSATURATED ZONE =          10708.81
       SATURATED ZONE =        -730294.05         SATURATED ZONE =           -746.76

 OVERALL BUDGET ERROR =          -5935.08           BUDGET ERROR =             21.93


  PERCENT DISCREPANCY =             -0.04    PERCENT DISCREPANCY =              0.02



1
 SUMMARY VOLUMETRIC BUDGET FOR GSFLOW 
 DATE: 04 14 1981              CUMULATIVE TIME STEP:     196
 MODFLOW STRESS PERIOD      2     CURRENT TIME STEP:     196     ITERATIONS:      13

 -----------------------------------------------------------------------------------

   CUMULATIVE VOLUMES               L**3   RATES FOR THIS TIME STEP           L**3/T
   ------------------                      ------------------------

                                     IN                                         IN
                                     --                                         --
        PRECIPITATION =        1.6121D+07          PRECIPITATION =                  
           STREAMFLOW =                               STREAMFLOW =                  
     GW BOUNDARY FLOW =                         GW BOUNDARY FLOW =                  


                                    OUT                                        OUT
                                    ---                                        ---
   EVAPOTRANSPIRATION =        6753978.53     EVAPOTRANSPIRATION =         187136.52
           STREAMFLOW =        5063966.26             STREAMFLOW =          60930.18
     GW BOUNDARY FLOW =         127588.87       GW BOUNDARY FLOW =            653.96

   INFLOWS - OUTFLOWS =        4175933.95     INFLOWS - OUTFLOWS =        -248720.66
             --------                                   --------

 TOTAL STORAGE CHANGE =        4181700.56         STORAGE CHANGE =        -248738.18
       --------------                             --------------
         LAND SURFACE =        3249108.93           LAND SURFACE =        -276414.17
            SOIL ZONE =        2439003.16              SOIL ZONE =           -676.42
     UNSATURATED ZONE =        -775428.59       UNSATURATED ZONE =          26583.93
       SATURATED ZONE =        -730982.93         SATURATED ZONE =           1768.48

 OVERALL BUDGET ERROR =          -5766.61           BUDGET ERROR =             17.53


  PERCENT DISCREPANCY =             -0.04    PERCENT DISCREPANCY =              0.01



1
 SUMMARY VOLUMETRIC BUDGET FOR GSFLOW 
 DATE: 04 21 1981              CUMULATIVE TIME STEP:     203
 MODFLOW STRESS PERIOD      2     CURRENT TIME STEP:     203     ITERATIONS:      14

 -----------------------------------------------------------------------------------

   CUMULATIVE VOLUMES               L**3   RATES FOR THIS TIME STEP           L**3/T
   ------------------                      ------------------------

                                     IN                                         IN
                                     --                                         --
        PRECIPITATION =        1.6310D+07          PRECIPITATION =                  
           STREAMFLOW =                               STREAMFLOW =                  
     GW BOUNDARY FLOW =                         GW BOUNDARY FLOW =                  


                                    OUT                                        OUT
                                    ---                                        ---
   EVAPOTRANSPIRATION =        7798378.50     EVAPOTRANSPIRATION =         153837.65
           STREAMFLOW =        5451025.56             STREAMFLOW =          53925.69
     GW BOUNDARY FLOW =         132163.26       GW BOUNDARY FLOW =            653.13

   INFLOWS - OUTFLOWS =        2928675.32     INFLOWS - OUTFLOWS =        -208416.47
             --------                                   --------

 TOTAL STORAGE CHANGE =        2934282.36         STORAGE CHANGE =        -208432.16
       --------------                             --------------
         LAND SURFACE =        1941586.43           LAND SURFACE =        -141315.80
            SOIL ZONE =        2325108.43              SOIL ZONE =         -93516.21
     UNSATURATED ZONE =        -618469.28       UNSATURATED ZONE =          23249.06
       SATURATED ZONE =        -713943.23         SATURATED ZONE =           3150.79

 OVERALL BUDGET ERROR =          -5607.04           BUDGET ERROR =             15.69


  PERCENT DISCREPANCY =             -0.03    PERCENT DISCREPANCY =              0.01



1
 SUMMARY VOLUMETRIC BUDGET FOR GSFLOW 
 DATE: 04 28 1981              CUMULATIVE TIME STEP:     210
 MODFLOW STRESS PERIOD      2     CURRENT TIME STEP:     210     ITERATIONS:      14

 -----------------------------------------------------------------------------------

   CUMULATIVE VOLUMES               L**3   RATES FOR THIS TIME STEP           L**3/T
   ------------------                      ------------------------

                                     IN                                         IN
                                     --                                         --
        PRECIPITATION =        1.6515D+07          PRECIPITATION =                  
           STREAMFLOW =                               STREAMFLOW =                  
     GW BOUNDARY FLOW =                         GW BOUNDARY FLOW =                  


                                    OUT                                        OUT
                                    ---                                        ---
   EVAPOTRANSPIRATION =        9056757.50     EVAPOTRANSPIRATION =         210387.58
           STREAMFLOW =        5711113.67             STREAMFLOW =          30410.37
     GW BOUNDARY FLOW =         136726.71       GW BOUNDARY FLOW =            650.99

   INFLOWS - OUTFLOWS =        1610835.01     INFLOWS - OUTFLOWS =        -241448.94
             --------                                   --------

 TOTAL STORAGE CHANGE =        1616266.02         STORAGE CHANGE =        -241475.06
       --------------                             --------------
         LAND SURFACE =        1047886.52           LAND SURFACE =        -108965.88
            SOIL ZONE =        1831601.31              SOIL ZONE =        -137880.79
     UNSATURATED ZONE =        -563020.93       UNSATURATED ZONE =           3778.52
       SATURATED ZONE =        -700200.87         SATURATED ZONE =           1593.09

 OVERALL BUDGET ERROR =          -5431.01           BUDGET ERROR =             26.12


  PERCENT DISCREPANCY =             -0.03    PERCENT DISCREPANCY =              0.01



1
 SUMMARY VOLUMETRIC BUDGET FOR GSFLOW 
 DATE: 05 05 1981              CUMULATIVE TIME STEP:     217
 MODFLOW STRESS PERIOD      2     CURRENT TIME STEP:     217     ITERATIONS:      14

 -----------------------------------------------------------------------------------

   CUMULATIVE VOLUMES               L**3   RATES FOR THIS TIME STEP           L**3/T
   ------------------                      ------------------------

                                     IN                                         IN
                                     --                                         --
        PRECIPITATION =        1.6515D+07          PRECIPITATION =                  
           STREAMFLOW =                               STREAMFLOW =                  
     GW BOUNDARY FLOW =                         GW BOUNDARY FLOW =                  


                                    OUT                                        OUT
                                    ---                                        ---
   EVAPOTRANSPIRATION =        9913890.21     EVAPOTRANSPIRATION =          47002.81
           STREAMFLOW =        5833939.17             STREAMFLOW =          11706.35
     GW BOUNDARY FLOW =         141275.53       GW BOUNDARY FLOW =            649.00

   INFLOWS - OUTFLOWS =         626327.97     INFLOWS - OUTFLOWS =         -59358.17
             --------                                   --------

 TOTAL STORAGE CHANGE =         631613.47         STORAGE CHANGE =         -59377.74
       --------------                             --------------
         LAND SURFACE =         583908.85           LAND SURFACE =         -19597.75
            SOIL ZONE =        1387125.36              SOIL ZONE =         -23365.11
     UNSATURATED ZONE =        -631218.41       UNSATURATED ZONE =         -14267.64
       SATURATED ZONE =        -708202.33         SATURATED ZONE =          -2147.24

 OVERALL BUDGET ERROR =          -5285.50           BUDGET ERROR =             19.58


  PERCENT DISCREPANCY =             -0.03    PERCENT DISCREPANCY =              0.03



1
 SUMMARY VOLUMETRIC BUDGET FOR GSFLOW 
 DATE: 05 12 1981              CUMULATIVE TIME STEP:     224
 MODFLOW STRESS PERIOD      2     CURRENT TIME STEP:     224     ITERATIONS:      12

 -----------------------------------------------------------------------------------

   CUMULATIVE VOLUMES               L**3   RATES FOR THIS TIME STEP           L**3/T
   ------------------                      ------------------------

                                     IN                                         IN
                                     --                                         --
        PRECIPITATION =        1.6515D+07          PRECIPITATION =                  
           STREAMFLOW =                               STREAMFLOW =                  
     GW BOUNDARY FLOW =                         GW BOUNDARY FLOW =                  


                                    OUT                                        OUT
                                    ---                                        ---
   EVAPOTRANSPIRATION =        1.0446D+07     EVAPOTRANSPIRATION =         101726.47
           STREAMFLOW =        5914960.46             STREAMFLOW =          12820.51
     GW BOUNDARY FLOW =         145815.53       GW BOUNDARY FLOW =            648.47

   INFLOWS - OUTFLOWS =           8986.77     INFLOWS - OUTFLOWS =        -115195.46
             --------                                   --------

 TOTAL STORAGE CHANGE =          14162.82         STORAGE CHANGE =        -115207.79
       --------------                             --------------
         LAND SURFACE =         364139.12           LAND SURFACE =         -39545.55
            SOIL ZONE =        1105518.72              SOIL ZONE =         -60901.91
     UNSATURATED ZONE =        -724449.33       UNSATURATED ZONE =         -10547.09
       SATURATED ZONE =        -731045.69         SATURATED ZONE =          -4213.25

 OVERALL BUDGET ERROR =          -5176.05           BUDGET ERROR =             12.33


  PERCENT DISCREPANCY =             -0.03    PERCENT DISCREPANCY =              0.01



1
 SUMMARY VOLUMETRIC BUDGET FOR GSFLOW 
 DATE: 05 19 1981              CUMULATIVE TIME STEP:     231
 MODFLOW STRESS PERIOD      2     CURRENT TIME STEP:     231     ITERATIONS:      19

 -----------------------------------------------------------------------------------

   CUMULATIVE VOLUMES               L**3   RATES FOR THIS TIME STEP           L**3/T
   ------------------                      ------------------------

                                     IN                                         IN
                                     --                                         --
        PRECIPITATION =        1.7837D+07          PRECIPITATION =         169045.43
           STREAMFLOW =                               STREAMFLOW =                  
     GW BOUNDARY FLOW =                         GW BOUNDARY FLOW =                  


                                    OUT                                        OUT
                                    ---                                        ---
   EVAPOTRANSPIRATION =        1.0792D+07     EVAPOTRANSPIRATION =          31098.89
           STREAMFLOW =        6069485.32             STREAMFLOW =          31801.51
     GW BOUNDARY FLOW =         150357.09       GW BOUNDARY FLOW =            649.98

   INFLOWS - OUTFLOWS =         825621.57     INFLOWS - OUTFLOWS =         105495.04
             --------                                   --------

 TOTAL STORAGE CHANGE =         830719.80         STORAGE CHANGE =         105480.96
       --------------                             --------------
         LAND SURFACE =         315733.71           LAND SURFACE =          16905.78
            SOIL ZONE =        2042173.52              SOIL ZONE =          86063.04
     UNSATURATED ZONE =        -762617.48       UNSATURATED ZONE =           6653.98
       SATURATED ZONE =        -764569.95         SATURATED ZONE =          -4141.83

 OVERALL BUDGET ERROR =          -5098.23           BUDGET ERROR =             14.08


  PERCENT DISCREPANCY =             -0.03    PERCENT DISCREPANCY =              0.01



1
 SUMMARY VOLUMETRIC BUDGET FOR GSFLOW 
 DATE: 05 26 1981              CUMULATIVE TIME STEP:     238
 MODFLOW STRESS PERIOD      2     CURRENT TIME STEP:     238     ITERATIONS:      14

 -----------------------------------------------------------------------------------

   CUMULATIVE VOLUMES               L**3   RATES FOR THIS TIME STEP           L**3/T
   ------------------                      ------------------------

                                     IN                                         IN
                                     --                                         --
        PRECIPITATION =        1.8252D+07          PRECIPITATION =         284303.67
           STREAMFLOW =                               STREAMFLOW =                  
     GW BOUNDARY FLOW =                         GW BOUNDARY FLOW =                  


                                    OUT                                        OUT
                                    ---                                        ---
   EVAPOTRANSPIRATION =        1.1581D+07     EVAPOTRANSPIRATION =         126247.52
           STREAMFLOW =        6207353.87             STREAMFLOW =          24131.97
     GW BOUNDARY FLOW =         154901.34       GW BOUNDARY FLOW =            648.96

   INFLOWS - OUTFLOWS =         308596.39     INFLOWS - OUTFLOWS =         133275.22
             --------                                   --------

 TOTAL STORAGE CHANGE =         313623.75         STORAGE CHANGE =         133266.73
       --------------                             --------------
         LAND SURFACE =         197572.68           LAND SURFACE =         -13397.86
            SOIL ZONE =        1711105.90              SOIL ZONE =         158547.08
     UNSATURATED ZONE =        -790070.14       UNSATURATED ZONE =          -6419.93
       SATURATED ZONE =        -804984.69         SATURATED ZONE =          -5462.55

 OVERALL BUDGET ERROR =          -5027.36           BUDGET ERROR =              8.49


  PERCENT DISCREPANCY =             -0.03    PERCENT DISCREPANCY =              0.00



1
 SUMMARY VOLUMETRIC BUDGET FOR GSFLOW 
 DATE: 06 02 1981              CUMULATIVE TIME STEP:     245
 MODFLOW STRESS PERIOD      2     CURRENT TIME STEP:     245     ITERATIONS:      17

 -----------------------------------------------------------------------------------

   CUMULATIVE VOLUMES               L**3   RATES FOR THIS TIME STEP           L**3/T
   ------------------                      ------------------------

                                     IN                                         IN
                                     --                                         --
        PRECIPITATION =        1.8318D+07          PRECIPITATION =          50869.96
           STREAMFLOW =                               STREAMFLOW =                  
     GW BOUNDARY FLOW =                         GW BOUNDARY FLOW =                  


                                    OUT                                        OUT
                                    ---                                        ---
   EVAPOTRANSPIRATION =        1.2409D+07     EVAPOTRANSPIRATION =          66645.20
           STREAMFLOW =        6293538.54             STREAMFLOW =           9120.90
     GW BOUNDARY FLOW =         159439.13       GW BOUNDARY FLOW =            647.71

   INFLOWS - OUTFLOWS =        -544179.25     INFLOWS - OUTFLOWS =         -25543.86
             --------                                   --------

 TOTAL STORAGE CHANGE =        -539189.30         STORAGE CHANGE =         -25551.27
       --------------                             --------------
         LAND SURFACE =         119474.98           LAND SURFACE =          25659.25
            SOIL ZONE =        1065573.07              SOIL ZONE =         -31104.90
     UNSATURATED ZONE =        -867966.92       UNSATURATED ZONE =         -12248.32
       SATURATED ZONE =        -856270.43         SATURATED ZONE =          -7857.31

 OVERALL BUDGET ERROR =          -4989.95           BUDGET ERROR =              7.42


  PERCENT DISCREPANCY =             -0.03    PERCENT DISCREPANCY =              0.01



1
 SUMMARY VOLUMETRIC BUDGET FOR GSFLOW 
 DATE: 06 09 1981              CUMULATIVE TIME STEP:     252
 MODFLOW STRESS PERIOD      2     CURRENT TIME STEP:     252     ITERATIONS:      15

 -----------------------------------------------------------------------------------

   CUMULATIVE VOLUMES               L**3   RATES FOR THIS TIME STEP           L**3/T
   ------------------                      ------------------------

                                     IN                                         IN
                                     --                                         --
        PRECIPITATION =        1.8318D+07          PRECIPITATION =                  
           STREAMFLOW =                               STREAMFLOW =                  
     GW BOUNDARY FLOW =                         GW BOUNDARY FLOW =                  


                                    OUT                                        OUT
                                    ---                                        ---
   EVAPOTRANSPIRATION =        1.2966D+07     EVAPOTRANSPIRATION =          55376.93
           STREAMFLOW =        6348404.28             STREAMFLOW =           7216.40
     GW BOUNDARY FLOW =         163970.55       GW BOUNDARY FLOW =            647.13

   INFLOWS - OUTFLOWS =       -1159936.17     INFLOWS - OUTFLOWS =         -63240.47
             --------                                   --------

 TOTAL STORAGE CHANGE =       -1155001.92         STORAGE CHANGE =         -63251.26
       --------------                             --------------
         LAND SURFACE =          39669.53           LAND SURFACE =          -4382.74
            SOIL ZONE =         671467.56              SOIL ZONE =         -38354.22
     UNSATURATED ZONE =        -951179.74       UNSATURATED ZONE =         -11944.59
       SATURATED ZONE =        -914959.27         SATURATED ZONE =          -8569.72

 OVERALL BUDGET ERROR =          -4934.25           BUDGET ERROR =             10.79


  PERCENT DISCREPANCY =             -0.03    PERCENT DISCREPANCY =              0.02



1
 SUMMARY VOLUMETRIC BUDGET FOR GSFLOW 
 DATE: 06 16 1981              CUMULATIVE TIME STEP:     259
 MODFLOW STRESS PERIOD      2     CURRENT TIME STEP:     259     ITERATIONS:      14

 -----------------------------------------------------------------------------------

   CUMULATIVE VOLUMES               L**3   RATES FOR THIS TIME STEP           L**3/T
   ------------------                      ------------------------

                                     IN                                         IN
                                     --                                         --
        PRECIPITATION =        1.8318D+07          PRECIPITATION =                  
           STREAMFLOW =                               STREAMFLOW =                  
     GW BOUNDARY FLOW =                         GW BOUNDARY FLOW =                  


                                    OUT                                        OUT
                                    ---                                        ---
   EVAPOTRANSPIRATION =        1.3177D+07     EVAPOTRANSPIRATION =          49129.57
           STREAMFLOW =        6396102.19             STREAMFLOW =           6666.94
     GW BOUNDARY FLOW =         168499.31       GW BOUNDARY FLOW =            646.87

   INFLOWS - OUTFLOWS =       -1423184.60     INFLOWS - OUTFLOWS =         -56443.38
             --------                                   --------

 TOTAL STORAGE CHANGE =       -1418290.47         STORAGE CHANGE =         -56448.94
       --------------                             --------------
         LAND SURFACE =          25589.68           LAND SURFACE =          -3042.77
            SOIL ZONE =         571923.60              SOIL ZONE =         -31737.50
     UNSATURATED ZONE =       -1038913.13       UNSATURATED ZONE =         -12731.12
       SATURATED ZONE =        -976890.63         SATURATED ZONE =          -8937.56

 OVERALL BUDGET ERROR =          -4894.13           BUDGET ERROR =              5.56


  PERCENT DISCREPANCY =             -0.02    PERCENT DISCREPANCY =              0.01



1
 SUMMARY VOLUMETRIC BUDGET FOR GSFLOW 
 DATE: 06 23 1981              CUMULATIVE TIME STEP:     266
 MODFLOW STRESS PERIOD      2     CURRENT TIME STEP:     266     ITERATIONS:      18

 -----------------------------------------------------------------------------------

   CUMULATIVE VOLUMES               L**3   RATES FOR THIS TIME STEP           L**3/T
   ------------------                      ------------------------

                                     IN                                         IN
                                     --                                         --
        PRECIPITATION =        1.8318D+07          PRECIPITATION =                  
           STREAMFLOW =                               STREAMFLOW =                  
     GW BOUNDARY FLOW =                         GW BOUNDARY FLOW =                  


                                    OUT                                        OUT
                                    ---                                        ---
   EVAPOTRANSPIRATION =        1.3519D+07     EVAPOTRANSPIRATION =          40291.23
           STREAMFLOW =        6440459.70             STREAMFLOW =           6087.09
     GW BOUNDARY FLOW =         173026.48       GW BOUNDARY FLOW =            646.64

   INFLOWS - OUTFLOWS =       -1813817.50     INFLOWS - OUTFLOWS =         -47024.95
             --------                                   --------

 TOTAL STORAGE CHANGE =       -1808993.22         STORAGE CHANGE =         -47031.99
       --------------                             --------------
         LAND SURFACE =           6959.28           LAND SURFACE =          -1578.51
            SOIL ZONE =         352833.59              SOIL ZONE =         -23674.30
     UNSATURATED ZONE =       -1126808.32       UNSATURATED ZONE =         -12275.87
       SATURATED ZONE =       -1041977.78         SATURATED ZONE =          -9503.30

 OVERALL BUDGET ERROR =          -4824.28           BUDGET ERROR =              7.04


  PERCENT DISCREPANCY =             -0.02    PERCENT DISCREPANCY =              0.01



1
 SUMMARY VOLUMETRIC BUDGET FOR GSFLOW 
 DATE: 06 30 1981              CUMULATIVE TIME STEP:     273
 MODFLOW STRESS PERIOD      2     CURRENT TIME STEP:     273     ITERATIONS:      14

 -----------------------------------------------------------------------------------

   CUMULATIVE VOLUMES               L**3   RATES FOR THIS TIME STEP           L**3/T
   ------------------                      ------------------------

                                     IN                                         IN
[...]
                                    ---                                        ---
   EVAPOTRANSPIRATION =        2.8382D+08     EVAPOTRANSPIRATION =          49225.89
           STREAMFLOW =        1.8483D+08             STREAMFLOW =           7347.56
     GW BOUNDARY FLOW =        3736512.37       GW BOUNDARY FLOW =            651.06

   INFLOWS - OUTFLOWS =       -7324742.01     INFLOWS - OUTFLOWS =         -57224.50
             --------                                   --------

 TOTAL STORAGE CHANGE =       -7296655.76         STORAGE CHANGE =         -57243.62
       --------------                             --------------
         LAND SURFACE =         214963.45           LAND SURFACE =         -10645.32
            SOIL ZONE =         329882.82              SOIL ZONE =         -25163.72
     UNSATURATED ZONE =        5399549.13       UNSATURATED ZONE =         -28155.03
       SATURATED ZONE =       -1.3241D+07         SATURATED ZONE =           6720.45

 OVERALL BUDGET ERROR =         -28086.25           BUDGET ERROR =             19.11


  PERCENT DISCREPANCY =             -0.01    PERCENT DISCREPANCY =              0.03



1
 SUMMARY VOLUMETRIC BUDGET FOR GSFLOW 
 DATE: 07 30 1996              CUMULATIVE TIME STEP:    5782
 MODFLOW STRESS PERIOD      2     CURRENT TIME STEP:    5782     ITERATIONS:      15

 -----------------------------------------------------------------------------------

   CUMULATIVE VOLUMES               L**3   RATES FOR THIS TIME STEP           L**3/T
   ------------------                      ------------------------

                                     IN                                         IN
                                     --                                         --
        PRECIPITATION =        4.6511D+08          PRECIPITATION =                  
           STREAMFLOW =                               STREAMFLOW =                  
     GW BOUNDARY FLOW =                         GW BOUNDARY FLOW =                  


                                    OUT                                        OUT
                                    ---                                        ---
   EVAPOTRANSPIRATION =        2.8413D+08     EVAPOTRANSPIRATION =          32620.78
           STREAMFLOW =        1.8488D+08             STREAMFLOW =           7047.10
     GW BOUNDARY FLOW =        3741068.02       GW BOUNDARY FLOW =            650.64

   INFLOWS - OUTFLOWS =       -7638371.92     INFLOWS - OUTFLOWS =         -40318.52
             --------                                   --------

 TOTAL STORAGE CHANGE =       -7610479.55         STORAGE CHANGE =         -40343.49
       --------------                             --------------
         LAND SURFACE =         152309.38           LAND SURFACE =          -7555.65
            SOIL ZONE =         229723.13              SOIL ZONE =         -11318.78
     UNSATURATED ZONE =        5201447.27       UNSATURATED ZONE =         -28009.30
       SATURATED ZONE =       -1.3194D+07         SATURATED ZONE =           6540.24

 OVERALL BUDGET ERROR =         -27892.37           BUDGET ERROR =             24.97


  PERCENT DISCREPANCY =             -0.01    PERCENT DISCREPANCY =              0.06



1
 SUMMARY VOLUMETRIC BUDGET FOR GSFLOW 
 DATE: 08 06 1996              CUMULATIVE TIME STEP:    5789
 MODFLOW STRESS PERIOD      2     CURRENT TIME STEP:    5789     ITERATIONS:      14

 -----------------------------------------------------------------------------------

   CUMULATIVE VOLUMES               L**3   RATES FOR THIS TIME STEP           L**3/T
   ------------------                      ------------------------

                                     IN                                         IN
                                     --                                         --
        PRECIPITATION =        4.6511D+08          PRECIPITATION =                  
           STREAMFLOW =                               STREAMFLOW =                  
     GW BOUNDARY FLOW =                         GW BOUNDARY FLOW =                  


                                    OUT                                        OUT
                                    ---                                        ---
   EVAPOTRANSPIRATION =        2.8431D+08     EVAPOTRANSPIRATION =          26112.88
           STREAMFLOW =        1.8493D+08             STREAMFLOW =           6766.48
     GW BOUNDARY FLOW =        3745622.18       GW BOUNDARY FLOW =            650.54

   INFLOWS - OUTFLOWS =       -7875414.59     INFLOWS - OUTFLOWS =         -33529.89
             --------                                   --------

 TOTAL STORAGE CHANGE =       -7847716.22         STORAGE CHANGE =         -33562.36
       --------------                             --------------
         LAND SURFACE =         111776.46           LAND SURFACE =          -5017.65
            SOIL ZONE =         181999.04              SOIL ZONE =          -7395.52
     UNSATURATED ZONE =        5012465.21       UNSATURATED ZONE =         -26280.21
       SATURATED ZONE =       -1.3154D+07         SATURATED ZONE =           5131.02

 OVERALL BUDGET ERROR =         -27698.37           BUDGET ERROR =             32.46


  PERCENT DISCREPANCY =             -0.01    PERCENT DISCREPANCY =              0.10



1
 SUMMARY VOLUMETRIC BUDGET FOR GSFLOW 
 DATE: 08 13 1996              CUMULATIVE TIME STEP:    5796
 MODFLOW STRESS PERIOD      2     CURRENT TIME STEP:    5796     ITERATIONS:      15

 -----------------------------------------------------------------------------------

   CUMULATIVE VOLUMES               L**3   RATES FOR THIS TIME STEP           L**3/T
   ------------------                      ------------------------

                                     IN                                         IN
                                     --                                         --
        PRECIPITATION =        4.6531D+08          PRECIPITATION =          54454.08
           STREAMFLOW =                               STREAMFLOW =                  
     GW BOUNDARY FLOW =                         GW BOUNDARY FLOW =                  


                                    OUT                                        OUT
                                    ---                                        ---
   EVAPOTRANSPIRATION =        2.8452D+08     EVAPOTRANSPIRATION =          36083.07
           STREAMFLOW =        1.8498D+08             STREAMFLOW =           7970.98
     GW BOUNDARY FLOW =        3750175.46       GW BOUNDARY FLOW =            650.48

   INFLOWS - OUTFLOWS =       -7940273.00     INFLOWS - OUTFLOWS =           9749.55
             --------                                   --------

 TOTAL STORAGE CHANGE =       -7912725.75         STORAGE CHANGE =           9727.62
       --------------                             --------------
         LAND SURFACE =         105220.94           LAND SURFACE =          -5194.35
            SOIL ZONE =         269957.15              SOIL ZONE =          35646.77
     UNSATURATED ZONE =        4832414.48       UNSATURATED ZONE =         -25080.17
       SATURATED ZONE =       -1.3120D+07         SATURATED ZONE =           4355.38

 OVERALL BUDGET ERROR =         -27547.25           BUDGET ERROR =             21.93


  PERCENT DISCREPANCY =             -0.01    PERCENT DISCREPANCY =              0.04



1
 SUMMARY VOLUMETRIC BUDGET FOR GSFLOW 
 DATE: 08 20 1996              CUMULATIVE TIME STEP:    5803
 MODFLOW STRESS PERIOD      2     CURRENT TIME STEP:    5803     ITERATIONS:      14

 -----------------------------------------------------------------------------------

   CUMULATIVE VOLUMES               L**3   RATES FOR THIS TIME STEP           L**3/T
   ------------------                      ------------------------

                                     IN                                         IN
                                     --                                         --
        PRECIPITATION =        4.6531D+08          PRECIPITATION =                  
           STREAMFLOW =                               STREAMFLOW =                  
     GW BOUNDARY FLOW =                         GW BOUNDARY FLOW =                  


                                    OUT                                        OUT
                                    ---                                        ---
   EVAPOTRANSPIRATION =        2.8474D+08     EVAPOTRANSPIRATION =          18242.55
           STREAMFLOW =        1.8503D+08             STREAMFLOW =           6519.74
     GW BOUNDARY FLOW =        3754727.15       GW BOUNDARY FLOW =            650.06

   INFLOWS - OUTFLOWS =       -8210386.74     INFLOWS - OUTFLOWS =         -25412.36
             --------                                   --------

 TOTAL STORAGE CHANGE =       -8183008.56         STORAGE CHANGE =         -25435.82
       --------------                             --------------
         LAND SURFACE =          44442.31           LAND SURFACE =          -2851.34
            SOIL ZONE =         205247.29              SOIL ZONE =          -2014.98
     UNSATURATED ZONE =        4661526.82       UNSATURATED ZONE =         -23899.35
       SATURATED ZONE =       -1.3094D+07         SATURATED ZONE =           3329.84

 OVERALL BUDGET ERROR =         -27378.18           BUDGET ERROR =             23.47


  PERCENT DISCREPANCY =             -0.01    PERCENT DISCREPANCY =              0.09



1
 SUMMARY VOLUMETRIC BUDGET FOR GSFLOW 
 DATE: 08 27 1996              CUMULATIVE TIME STEP:    5810
 MODFLOW STRESS PERIOD      2     CURRENT TIME STEP:    5810     ITERATIONS:      13

 -----------------------------------------------------------------------------------

   CUMULATIVE VOLUMES               L**3   RATES FOR THIS TIME STEP           L**3/T
   ------------------                      ------------------------

                                     IN                                         IN
                                     --                                         --
        PRECIPITATION =        4.6531D+08          PRECIPITATION =                  
           STREAMFLOW =                               STREAMFLOW =                  
     GW BOUNDARY FLOW =                         GW BOUNDARY FLOW =                  


                                    OUT                                        OUT
                                    ---                                        ---
   EVAPOTRANSPIRATION =        2.8490D+08     EVAPOTRANSPIRATION =          16928.84
           STREAMFLOW =        1.8507D+08             STREAMFLOW =           6354.76
     GW BOUNDARY FLOW =        3759276.04       GW BOUNDARY FLOW =            649.68

   INFLOWS - OUTFLOWS =       -8421302.79     INFLOWS - OUTFLOWS =         -23933.28
             --------                                   --------

 TOTAL STORAGE CHANGE =       -8394128.95         STORAGE CHANGE =         -23963.06
       --------------                             --------------
         LAND SURFACE =          21435.23           LAND SURFACE =          -2621.72
            SOIL ZONE =         160109.53              SOIL ZONE =          -1024.68
     UNSATURATED ZONE =        4500043.15       UNSATURATED ZONE =         -22553.43
       SATURATED ZONE =       -1.3076D+07         SATURATED ZONE =           2236.77

 OVERALL BUDGET ERROR =         -27173.84           BUDGET ERROR =             29.78


  PERCENT DISCREPANCY =             -0.01    PERCENT DISCREPANCY =              0.12



1
 SUMMARY VOLUMETRIC BUDGET FOR GSFLOW 
 DATE: 09 03 1996              CUMULATIVE TIME STEP:    5817
 MODFLOW STRESS PERIOD      2     CURRENT TIME STEP:    5817     ITERATIONS:      13

 -----------------------------------------------------------------------------------

   CUMULATIVE VOLUMES               L**3   RATES FOR THIS TIME STEP           L**3/T
   ------------------                      ------------------------

                                     IN                                         IN
                                     --                                         --
        PRECIPITATION =        4.6531D+08          PRECIPITATION =                  
           STREAMFLOW =                               STREAMFLOW =                  
     GW BOUNDARY FLOW =                         GW BOUNDARY FLOW =                  


                                    OUT                                        OUT
                                    ---                                        ---
   EVAPOTRANSPIRATION =        2.8502D+08     EVAPOTRANSPIRATION =          15452.03
           STREAMFLOW =        1.8512D+08             STREAMFLOW =           6240.75
     GW BOUNDARY FLOW =        3763822.12       GW BOUNDARY FLOW =            649.26

   INFLOWS - OUTFLOWS =       -8588696.29     INFLOWS - OUTFLOWS =         -22342.05
             --------                                   --------

 TOTAL STORAGE CHANGE =       -8561750.85         STORAGE CHANGE =         -22379.40
       --------------                             --------------
         LAND SURFACE =           7240.32           LAND SURFACE =          -1278.90
            SOIL ZONE =         147946.75              SOIL ZONE =          -1016.87
     UNSATURATED ZONE =        4346294.48       UNSATURATED ZONE =         -21746.85
       SATURATED ZONE =       -1.3063D+07         SATURATED ZONE =           1663.21

 OVERALL BUDGET ERROR =         -26945.43           BUDGET ERROR =             37.35


  PERCENT DISCREPANCY =             -0.01    PERCENT DISCREPANCY =              0.17



1
 SUMMARY VOLUMETRIC BUDGET FOR GSFLOW 
 DATE: 09 10 1996              CUMULATIVE TIME STEP:    5824
 MODFLOW STRESS PERIOD      2     CURRENT TIME STEP:    5824     ITERATIONS:      13

 -----------------------------------------------------------------------------------

   CUMULATIVE VOLUMES               L**3   RATES FOR THIS TIME STEP           L**3/T
   ------------------                      ------------------------

                                     IN                                         IN
                                     --                                         --
        PRECIPITATION =        4.6531D+08          PRECIPITATION =                  
           STREAMFLOW =                               STREAMFLOW =                  
     GW BOUNDARY FLOW =                         GW BOUNDARY FLOW =                  


                                    OUT                                        OUT
                                    ---                                        ---
   EVAPOTRANSPIRATION =        2.8511D+08     EVAPOTRANSPIRATION =          13776.96
           STREAMFLOW =        1.8516D+08             STREAMFLOW =           6133.06
     GW BOUNDARY FLOW =        3768365.40       GW BOUNDARY FLOW =            648.87

   INFLOWS - OUTFLOWS =       -8725882.90     INFLOWS - OUTFLOWS =         -20558.88
             --------                                   --------

 TOTAL STORAGE CHANGE =       -8699188.05         STORAGE CHANGE =         -20590.04
       --------------                             --------------
         LAND SURFACE =           2510.71           LAND SURFACE =           -704.62
            SOIL ZONE =         154894.47              SOIL ZONE =            -35.43
     UNSATURATED ZONE =        4197028.09       UNSATURATED ZONE =         -20933.49
       SATURATED ZONE =       -1.3054D+07         SATURATED ZONE =           1083.50

 OVERALL BUDGET ERROR =         -26694.85           BUDGET ERROR =             31.16


  PERCENT DISCREPANCY =             -0.01    PERCENT DISCREPANCY =              0.15



1
 SUMMARY VOLUMETRIC BUDGET FOR GSFLOW 
 DATE: 09 17 1996              CUMULATIVE TIME STEP:    5831
 MODFLOW STRESS PERIOD      2     CURRENT TIME STEP:    5831     ITERATIONS:      12

 -----------------------------------------------------------------------------------

   CUMULATIVE VOLUMES               L**3   RATES FOR THIS TIME STEP           L**3/T
   ------------------                      ------------------------

                                     IN                                         IN
                                     --                                         --
        PRECIPITATION =        4.6637D+08          PRECIPITATION =                  
           STREAMFLOW =                               STREAMFLOW =                  
     GW BOUNDARY FLOW =                         GW BOUNDARY FLOW =                  


                                    OUT                                        OUT
                                    ---                                        ---
   EVAPOTRANSPIRATION =        2.8529D+08     EVAPOTRANSPIRATION =          52774.70
           STREAMFLOW =        1.8523D+08             STREAMFLOW =          10299.89
     GW BOUNDARY FLOW =        3772907.88       GW BOUNDARY FLOW =            649.26

   INFLOWS - OUTFLOWS =       -7917833.53     INFLOWS - OUTFLOWS =         -63723.86
             --------                                   --------

 TOTAL STORAGE CHANGE =       -7891402.91         STORAGE CHANGE =         -63758.98
       --------------                             --------------
         LAND SURFACE =            882.14           LAND SURFACE =         -33826.70
            SOIL ZONE =        1100389.99              SOIL ZONE =         -10295.06
     UNSATURATED ZONE =        4052547.85       UNSATURATED ZONE =         -20283.96
       SATURATED ZONE =       -1.3045D+07         SATURATED ZONE =            646.76

 OVERALL BUDGET ERROR =         -26430.63           BUDGET ERROR =             35.12


  PERCENT DISCREPANCY =             -0.01    PERCENT DISCREPANCY =              0.06



1
 SUMMARY VOLUMETRIC BUDGET FOR GSFLOW 
 DATE: 09 24 1996              CUMULATIVE TIME STEP:    5838
 MODFLOW STRESS PERIOD      2     CURRENT TIME STEP:    5838     ITERATIONS:      12

 -----------------------------------------------------------------------------------

   CUMULATIVE VOLUMES               L**3   RATES FOR THIS TIME STEP           L**3/T
   ------------------                      ------------------------

                                     IN                                         IN
                                     --                                         --
        PRECIPITATION =        4.6637D+08          PRECIPITATION =                  
           STREAMFLOW =                               STREAMFLOW =                  
     GW BOUNDARY FLOW =                         GW BOUNDARY FLOW =                  


                                    OUT                                        OUT
                                    ---                                        ---
   EVAPOTRANSPIRATION =        2.8575D+08     EVAPOTRANSPIRATION =          54621.78
           STREAMFLOW =        1.8528D+08             STREAMFLOW =           6710.44
     GW BOUNDARY FLOW =        3777448.79       GW BOUNDARY FLOW =            648.36

   INFLOWS - OUTFLOWS =       -8438514.07     INFLOWS - OUTFLOWS =         -61980.58
             --------                                   --------

 TOTAL STORAGE CHANGE =       -8412336.23         STORAGE CHANGE =         -62015.11
       --------------                             --------------
         LAND SURFACE =                             LAND SURFACE =                  
            SOIL ZONE =         717056.39              SOIL ZONE =         -42566.97
     UNSATURATED ZONE =        3914772.70       UNSATURATED ZONE =         -19306.83
       SATURATED ZONE =       -1.3044D+07         SATURATED ZONE =           -141.32

 OVERALL BUDGET ERROR =         -26177.84           BUDGET ERROR =             34.54


  PERCENT DISCREPANCY =             -0.01    PERCENT DISCREPANCY =              0.06



