1
 SUMMARY VOLUMETRIC BUDGET FOR GSFLOW 
 DATE: 10 07 1980              CUMULATIVE TIME STEP:       7
 MODFLOW STRESS PERIOD      2     CURRENT TIME STEP:       7     ITERATIONS:       6

 -----------------------------------------------------------------------------------

   CUMULATIVE VOLUMES               L**3   RATES FOR THIS TIME STEP           L**3/T
   ------------------                      ------------------------

                                     IN                                         IN
                                     --                                         --
        PRECIPITATION =                            PRECIPITATION =                  
           STREAMFLOW =                               STREAMFLOW =                  
     GW BOUNDARY FLOW =                         GW BOUNDARY FLOW =                  


                                    OUT                                        OUT
                                    ---                                        ---
   EVAPOTRANSPIRATION =          63501.87     EVAPOTRANSPIRATION =           9679.38
           STREAMFLOW =          42957.63             STREAMFLOW =           6065.77
     GW BOUNDARY FLOW =           4541.44       GW BOUNDARY FLOW =            648.70

   INFLOWS - OUTFLOWS =        -111000.94     INFLOWS - OUTFLOWS =         -16393.85
             --------                                   --------

 TOTAL STORAGE CHANGE =        -110545.15         STORAGE CHANGE =         -16325.53
       --------------                             --------------
         LAND SURFACE =                             LAND SURFACE =                  
            SOIL ZONE =          47015.18              SOIL ZONE =           6017.04
     UNSATURATED ZONE =        -144777.37       UNSATURATED ZONE =         -20360.11
       SATURATED ZONE =         -12782.96         SATURATED ZONE =          -1982.46

 OVERALL BUDGET ERROR =           -455.78           BUDGET ERROR =            -68.32


  PERCENT DISCREPANCY =             -0.41    PERCENT DISCREPANCY =             -0.42



1
 SUMMARY VOLUMETRIC BUDGET FOR GSFLOW 
 DATE: 10 14 1980              CUMULATIVE TIME STEP:      14
 MODFLOW STRESS PERIOD      2     CURRENT TIME STEP:      14     ITERATIONS:       6

 -----------------------------------------------------------------------------------

   CUMULATIVE VOLUMES               L**3   RATES FOR THIS TIME STEP           L**3/T
   ------------------                      ------------------------

                                     IN                                         IN
                                     --                                         --
        PRECIPITATION =         650779.83          PRECIPITATION =         164754.40
           STREAMFLOW =                               STREAMFLOW =                  
     GW BOUNDARY FLOW =                         GW BOUNDARY FLOW =                  


                                    OUT                                        OUT
                                    ---                                        ---
   EVAPOTRANSPIRATION =         147658.87     EVAPOTRANSPIRATION =           7975.53
           STREAMFLOW =          92677.70             STREAMFLOW =           7494.65
     GW BOUNDARY FLOW =           9082.78       GW BOUNDARY FLOW =            648.89

   INFLOWS - OUTFLOWS =         401360.49     INFLOWS - OUTFLOWS =         148635.32
             --------                                   --------

 TOTAL STORAGE CHANGE =         402331.01         STORAGE CHANGE =         148709.32
       --------------                             --------------
         LAND SURFACE =         277689.24           LAND SURFACE =         136623.45
            SOIL ZONE =         436768.61              SOIL ZONE =          34103.72
     UNSATURATED ZONE =        -284452.37       UNSATURATED ZONE =         -19623.49
       SATURATED ZONE =         -27674.48         SATURATED ZONE =          -2394.36

 OVERALL BUDGET ERROR =           -970.52           BUDGET ERROR =            -73.99


  PERCENT DISCREPANCY =             -0.15    PERCENT DISCREPANCY =             -0.04



1
 SUMMARY VOLUMETRIC BUDGET FOR GSFLOW 
 DATE: 10 21 1980              CUMULATIVE TIME STEP:      21
 MODFLOW STRESS PERIOD      2     CURRENT TIME STEP:      21     ITERATIONS:       6

 -----------------------------------------------------------------------------------

   CUMULATIVE VOLUMES               L**3   RATES FOR THIS TIME STEP           L**3/T
   ------------------                      ------------------------

                                     IN                                         IN
                                     --                                         --
        PRECIPITATION =         733157.03          PRECIPITATION =                  
           STREAMFLOW =                               STREAMFLOW =                  
     GW BOUNDARY FLOW =                         GW BOUNDARY FLOW =                  


                                    OUT                                        OUT
                                    ---                                        ---
   EVAPOTRANSPIRATION =         376396.56     EVAPOTRANSPIRATION =          37107.61
           STREAMFLOW =         144889.98             STREAMFLOW =           7105.83
     GW BOUNDARY FLOW =          13624.56       GW BOUNDARY FLOW =            648.77

   INFLOWS - OUTFLOWS =         198245.93     INFLOWS - OUTFLOWS =         -44862.21
             --------                                   --------

 TOTAL STORAGE CHANGE =         199726.04         STORAGE CHANGE =         -44781.47
       --------------                             --------------
         LAND SURFACE =           2250.88           LAND SURFACE =          -3153.72
            SOIL ZONE =         662442.73              SOIL ZONE =         -19836.14
     UNSATURATED ZONE =        -418622.05       UNSATURATED ZONE =         -18801.05
       SATURATED ZONE =         -46345.52         SATURATED ZONE =          -2990.56

 OVERALL BUDGET ERROR =          -1480.11           BUDGET ERROR =            -80.74


  PERCENT DISCREPANCY =             -0.20    PERCENT DISCREPANCY =             -0.18



1
 SUMMARY VOLUMETRIC BUDGET FOR GSFLOW 
 DATE: 10 28 1980              CUMULATIVE TIME STEP:      28
 MODFLOW STRESS PERIOD      2     CURRENT TIME STEP:      28     ITERATIONS:       6

 -----------------------------------------------------------------------------------

   CUMULATIVE VOLUMES               L**3   RATES FOR THIS TIME STEP           L**3/T
   ------------------                      ------------------------

                                     IN                                         IN
                                     --                                         --
        PRECIPITATION =        1070903.53          PRECIPITATION =                  
           STREAMFLOW =                               STREAMFLOW =                  
     GW BOUNDARY FLOW =                         GW BOUNDARY FLOW =                  


                                    OUT                                        OUT
                                    ---                                        ---
   EVAPOTRANSPIRATION =         557222.99     EVAPOTRANSPIRATION =          23594.60
           STREAMFLOW =         199840.05             STREAMFLOW =           7989.28
     GW BOUNDARY FLOW =          18165.91       GW BOUNDARY FLOW =            648.81

   INFLOWS - OUTFLOWS =         295674.57     INFLOWS - OUTFLOWS =         -32232.69
             --------                                   --------

 TOTAL STORAGE CHANGE =         297725.98         STORAGE CHANGE =         -32146.01
       --------------                             --------------
         LAND SURFACE =          24619.51           LAND SURFACE =         -30948.99
            SOIL ZONE =         889249.39              SOIL ZONE =          20270.81
     UNSATURATED ZONE =        -547225.19       UNSATURATED ZONE =         -17994.12
       SATURATED ZONE =         -68917.73         SATURATED ZONE =          -3473.70

 OVERALL BUDGET ERROR =          -2051.41           BUDGET ERROR =            -86.68


  PERCENT DISCREPANCY =             -0.19    PERCENT DISCREPANCY =             -0.27



1
 SUMMARY VOLUMETRIC BUDGET FOR GSFLOW 
 DATE: 11 04 1980              CUMULATIVE TIME STEP:      35
 MODFLOW STRESS PERIOD      2     CURRENT TIME STEP:      35     ITERATIONS:       8

 -----------------------------------------------------------------------------------

   CUMULATIVE VOLUMES               L**3   RATES FOR THIS TIME STEP           L**3/T
   ------------------                      ------------------------

                                     IN                                         IN
                                     --                                         --
        PRECIPITATION =        1070903.53          PRECIPITATION =                  
           STREAMFLOW =                               STREAMFLOW =                  
     GW BOUNDARY FLOW =                         GW BOUNDARY FLOW =                  


                                    OUT                                        OUT
                                    ---                                        ---
   EVAPOTRANSPIRATION =         854955.73     EVAPOTRANSPIRATION =          38437.87
           STREAMFLOW =         252307.74             STREAMFLOW =           7018.29
     GW BOUNDARY FLOW =          22706.92       GW BOUNDARY FLOW =            648.64

   INFLOWS - OUTFLOWS =         -59066.85     INFLOWS - OUTFLOWS =         -46104.81
             --------                                   --------

 TOTAL STORAGE CHANGE =         -56524.68         STORAGE CHANGE =         -46042.62
       --------------                             --------------
         LAND SURFACE =                             LAND SURFACE =                  
            SOIL ZONE =         710232.27              SOIL ZONE =         -24516.80
     UNSATURATED ZONE =        -670653.09       UNSATURATED ZONE =         -17361.18
       SATURATED ZONE =         -96103.86         SATURATED ZONE =          -4164.65

 OVERALL BUDGET ERROR =          -2542.17           BUDGET ERROR =            -62.19


  PERCENT DISCREPANCY =             -0.23    PERCENT DISCREPANCY =             -0.13



1
 SUMMARY VOLUMETRIC BUDGET FOR GSFLOW 
 DATE: 11 11 1980              CUMULATIVE TIME STEP:      42
 MODFLOW STRESS PERIOD      2     CURRENT TIME STEP:      42     ITERATIONS:       7

 -----------------------------------------------------------------------------------

   CUMULATIVE VOLUMES               L**3   RATES FOR THIS TIME STEP           L**3/T
   ------------------                      ------------------------

                                     IN                                         IN
                                     --                                         --
        PRECIPITATION =        1573762.54          PRECIPITATION =         255182.19
           STREAMFLOW =                               STREAMFLOW =                  
     GW BOUNDARY FLOW =                         GW BOUNDARY FLOW =                  


                                    OUT                                        OUT
                                    ---                                        ---
   EVAPOTRANSPIRATION =        1066449.21     EVAPOTRANSPIRATION =          14943.51
           STREAMFLOW =         308275.84             STREAMFLOW =          10769.59
     GW BOUNDARY FLOW =          27247.64       GW BOUNDARY FLOW =            648.84

   INFLOWS - OUTFLOWS =         171789.85     INFLOWS - OUTFLOWS =         228820.25
             --------                                   --------

 TOTAL STORAGE CHANGE =         174877.73         STORAGE CHANGE =         228885.15
       --------------                             --------------
         LAND SURFACE =          78612.95           LAND SURFACE =          76659.87
            SOIL ZONE =        1011571.51              SOIL ZONE =         172849.21
     UNSATURATED ZONE =        -789255.17       UNSATURATED ZONE =         -16535.08
       SATURATED ZONE =        -126051.56         SATURATED ZONE =          -4088.85

 OVERALL BUDGET ERROR =          -3087.88           BUDGET ERROR =            -64.90


  PERCENT DISCREPANCY =             -0.20    PERCENT DISCREPANCY =             -0.03



1
 SUMMARY VOLUMETRIC BUDGET FOR GSFLOW 
 DATE: 11 18 1980              CUMULATIVE TIME STEP:      49
 MODFLOW STRESS PERIOD      2     CURRENT TIME STEP:      49     ITERATIONS:       6

 -----------------------------------------------------------------------------------

   CUMULATIVE VOLUMES               L**3   RATES FOR THIS TIME STEP           L**3/T
   ------------------                      ------------------------

                                     IN                                         IN
                                     --                                         --
        PRECIPITATION =        1573762.54          PRECIPITATION =                  
           STREAMFLOW =                               STREAMFLOW =                  
     GW BOUNDARY FLOW =                         GW BOUNDARY FLOW =                  


                                    OUT                                        OUT
                                    ---                                        ---
   EVAPOTRANSPIRATION =        1154884.60     EVAPOTRANSPIRATION =          16641.05
           STREAMFLOW =         371180.73             STREAMFLOW =           9356.86
     GW BOUNDARY FLOW =          31789.52       GW BOUNDARY FLOW =            648.86

   INFLOWS - OUTFLOWS =          15907.70     INFLOWS - OUTFLOWS =         -26646.77
             --------                                   --------

 TOTAL STORAGE CHANGE =          19628.59         STORAGE CHANGE =         -26546.89
       --------------                             --------------
         LAND SURFACE =           8654.86           LAND SURFACE =          -6203.23
            SOIL ZONE =        1072826.73              SOIL ZONE =            475.81
     UNSATURATED ZONE =        -903178.43       UNSATURATED ZONE =         -16032.05
       SATURATED ZONE =        -158674.57         SATURATED ZONE =          -4787.42

 OVERALL BUDGET ERROR =          -3720.89           BUDGET ERROR =            -99.87


  PERCENT DISCREPANCY =             -0.24    PERCENT DISCREPANCY =             -0.38



1
 SUMMARY VOLUMETRIC BUDGET FOR GSFLOW 
 DATE: 11 25 1980              CUMULATIVE TIME STEP:      56
 MODFLOW STRESS PERIOD      2     CURRENT TIME STEP:      56     ITERATIONS:       8

 -----------------------------------------------------------------------------------

   CUMULATIVE VOLUMES               L**3   RATES FOR THIS TIME STEP           L**3/T
   ------------------                      ------------------------

                                     IN                                         IN
                                     --                                         --
        PRECIPITATION =        1648816.13          PRECIPITATION =                  
           STREAMFLOW =                               STREAMFLOW =                  
     GW BOUNDARY FLOW =                         GW BOUNDARY FLOW =                  


                                    OUT                                        OUT
                                    ---                                        ---
   EVAPOTRANSPIRATION =        1230198.80     EVAPOTRANSPIRATION =           8792.74
           STREAMFLOW =         438362.80             STREAMFLOW =           9949.34
     GW BOUNDARY FLOW =          36331.80       GW BOUNDARY FLOW =            648.93

   INFLOWS - OUTFLOWS =         -56077.27     INFLOWS - OUTFLOWS =         -19391.02
             --------                                   --------

 TOTAL STORAGE CHANGE =         -51804.23         STORAGE CHANGE =         -19326.93
       --------------                             --------------
         LAND SURFACE =          55166.83           LAND SURFACE =          -8744.58
            SOIL ZONE =        1100545.27              SOIL ZONE =          10160.40
     UNSATURATED ZONE =       -1012811.68       UNSATURATED ZONE =         -15404.75
       SATURATED ZONE =        -194704.65         SATURATED ZONE =          -5338.00

 OVERALL BUDGET ERROR =          -4273.04           BUDGET ERROR =            -64.09


  PERCENT DISCREPANCY =             -0.25    PERCENT DISCREPANCY =             -0.33



1
 SUMMARY VOLUMETRIC BUDGET FOR GSFLOW 
 DATE: 12 02 1980              CUMULATIVE TIME STEP:      63
 MODFLOW STRESS PERIOD      2     CURRENT TIME STEP:      63     ITERATIONS:       8

 -----------------------------------------------------------------------------------

   CUMULATIVE VOLUMES               L**3   RATES FOR THIS TIME STEP           L**3/T
   ------------------                      ------------------------

                                     IN                                         IN
                                     --                                         --
        PRECIPITATION =        2076621.55          PRECIPITATION =                  
           STREAMFLOW =                               STREAMFLOW =                  
     GW BOUNDARY FLOW =                         GW BOUNDARY FLOW =                  


                                    OUT                                        OUT
                                    ---                                        ---
   EVAPOTRANSPIRATION =        1423641.23     EVAPOTRANSPIRATION =          34189.28
           STREAMFLOW =         523312.46             STREAMFLOW =          15235.92
     GW BOUNDARY FLOW =          40875.74       GW BOUNDARY FLOW =            649.44

   INFLOWS - OUTFLOWS =          88792.12     INFLOWS - OUTFLOWS =         -50074.64
             --------                                   --------

 TOTAL STORAGE CHANGE =          93496.46         STORAGE CHANGE =         -50018.55
       --------------                             --------------
         LAND SURFACE =         152551.10           LAND SURFACE =         -75205.42
            SOIL ZONE =        1286013.00              SOIL ZONE =          42855.29
     UNSATURATED ZONE =       -1114355.05       UNSATURATED ZONE =         -13042.87
       SATURATED ZONE =        -230712.59         SATURATED ZONE =          -4625.55

 OVERALL BUDGET ERROR =          -4704.35           BUDGET ERROR =            -56.08


  PERCENT DISCREPANCY =             -0.23    PERCENT DISCREPANCY =             -0.11



1
 SUMMARY VOLUMETRIC BUDGET FOR GSFLOW 
 DATE: 12 09 1980              CUMULATIVE TIME STEP:      70
 MODFLOW STRESS PERIOD      2     CURRENT TIME STEP:      70     ITERATIONS:       8

 -----------------------------------------------------------------------------------

   CUMULATIVE VOLUMES               L**3   RATES FOR THIS TIME STEP           L**3/T
   ------------------                      ------------------------

                                     IN                                         IN
                                     --                                         --
        PRECIPITATION =        4284363.63          PRECIPITATION =                  
           STREAMFLOW =                               STREAMFLOW =                  
     GW BOUNDARY FLOW =                         GW BOUNDARY FLOW =                  


                                    OUT                                        OUT
                                    ---                                        ---
   EVAPOTRANSPIRATION =        1447059.60     EVAPOTRANSPIRATION =           2942.43
           STREAMFLOW =         622582.85             STREAMFLOW =          14460.04
     GW BOUNDARY FLOW =          45422.60       GW BOUNDARY FLOW =            649.64

   INFLOWS - OUTFLOWS =        2169298.58     INFLOWS - OUTFLOWS =         -18052.12
             --------                                   --------

 TOTAL STORAGE CHANGE =        2174477.18         STORAGE CHANGE =         -18003.60
       --------------                             --------------
         LAND SURFACE =        2335216.87           LAND SURFACE =          -2942.43
            SOIL ZONE =        1321846.00              SOIL ZONE =           5168.79
     UNSATURATED ZONE =       -1212719.12       UNSATURATED ZONE =         -14219.28
       SATURATED ZONE =        -269866.58         SATURATED ZONE =          -6010.68

 OVERALL BUDGET ERROR =          -5178.60           BUDGET ERROR =            -48.52


  PERCENT DISCREPANCY =             -0.12    PERCENT DISCREPANCY =             -0.27



1
 SUMMARY VOLUMETRIC BUDGET FOR GSFLOW 
 DATE: 12 16 1980              CUMULATIVE TIME STEP:      77
 MODFLOW STRESS PERIOD      2     CURRENT TIME STEP:      77     ITERATIONS:       7

 -----------------------------------------------------------------------------------

   CUMULATIVE VOLUMES               L**3   RATES FOR THIS TIME STEP           L**3/T
   ------------------                      ------------------------

                                     IN                                         IN
                                     --                                         --
        PRECIPITATION =        4284363.63          PRECIPITATION =                  
           STREAMFLOW =                               STREAMFLOW =                  
     GW BOUNDARY FLOW =                         GW BOUNDARY FLOW =                  


                                    OUT                                        OUT
                                    ---                                        ---
   EVAPOTRANSPIRATION =        1589058.95     EVAPOTRANSPIRATION =          33888.80
           STREAMFLOW =         742127.06             STREAMFLOW =          24744.71
     GW BOUNDARY FLOW =          49971.18       GW BOUNDARY FLOW =            650.23

   INFLOWS - OUTFLOWS =        1903206.44     INFLOWS - OUTFLOWS =         -59283.74
             --------                                   --------

 TOTAL STORAGE CHANGE =        1908812.58         STORAGE CHANGE =         -59213.35
       --------------                             --------------
         LAND SURFACE =        2023939.67           LAND SURFACE =        -129021.52
            SOIL ZONE =        1498072.45              SOIL ZONE =          83500.94
     UNSATURATED ZONE =       -1302771.72       UNSATURATED ZONE =          -9208.38
       SATURATED ZONE =        -310427.82         SATURATED ZONE =          -4484.40

 OVERALL BUDGET ERROR =          -5606.14           BUDGET ERROR =            -70.39


  PERCENT DISCREPANCY =             -0.13    PERCENT DISCREPANCY =             -0.12



1
 SUMMARY VOLUMETRIC BUDGET FOR GSFLOW 
 DATE: 12 23 1980              CUMULATIVE TIME STEP:      84
 MODFLOW STRESS PERIOD      2     CURRENT TIME STEP:      84     ITERATIONS:       9

 -----------------------------------------------------------------------------------

   CUMULATIVE VOLUMES               L**3   RATES FOR THIS TIME STEP           L**3/T
   ------------------                      ------------------------

                                     IN                                         IN
                                     --                                         --
        PRECIPITATION =        4516757.54          PRECIPITATION =                  
           STREAMFLOW =                               STREAMFLOW =                  
     GW BOUNDARY FLOW =                         GW BOUNDARY FLOW =                  


                                    OUT                                        OUT
                                    ---                                        ---
   EVAPOTRANSPIRATION =        1795069.75     EVAPOTRANSPIRATION =          35140.32
           STREAMFLOW =         968071.28             STREAMFLOW =          30101.98
     GW BOUNDARY FLOW =          54531.42       GW BOUNDARY FLOW =            651.90

   INFLOWS - OUTFLOWS =        1699085.08     INFLOWS - OUTFLOWS =         -65894.20
             --------                                   --------

 TOTAL STORAGE CHANGE =        1705003.09         STORAGE CHANGE =         -65860.98
       --------------                             --------------
         LAND SURFACE =        1432148.87           LAND SURFACE =         -48137.04
            SOIL ZONE =        1958110.60              SOIL ZONE =          -6699.54
     UNSATURATED ZONE =       -1346305.03       UNSATURATED ZONE =          -6282.32
       SATURATED ZONE =        -338951.36         SATURATED ZONE =          -4742.08

 OVERALL BUDGET ERROR =          -5918.01           BUDGET ERROR =            -33.22


  PERCENT DISCREPANCY =             -0.13    PERCENT DISCREPANCY =             -0.05



1
 SUMMARY VOLUMETRIC BUDGET FOR GSFLOW 
 DATE: 12 30 1980              CUMULATIVE TIME STEP:      91
 MODFLOW STRESS PERIOD      2     CURRENT TIME STEP:      91     ITERATIONS:       9

 -----------------------------------------------------------------------------------

   CUMULATIVE VOLUMES               L**3   RATES FOR THIS TIME STEP           L**3/T
   ------------------                      ------------------------

                                     IN                                         IN
                                     --                                         --
        PRECIPITATION =        4516757.54          PRECIPITATION =                  
           STREAMFLOW =                               STREAMFLOW =                  
     GW BOUNDARY FLOW =                         GW BOUNDARY FLOW =                  


                                    OUT                                        OUT
                                    ---                                        ---
   EVAPOTRANSPIRATION =        2155766.45     EVAPOTRANSPIRATION =          45891.07
           STREAMFLOW =        1212018.54             STREAMFLOW =          27165.20
     GW BOUNDARY FLOW =          59097.99       GW BOUNDARY FLOW =            652.35

   INFLOWS - OUTFLOWS =        1089874.55     INFLOWS - OUTFLOWS =         -73708.62
             --------                                   --------

 TOTAL STORAGE CHANGE =        1095975.20         STORAGE CHANGE =         -73686.15
       --------------                             --------------
         LAND SURFACE =         640989.36           LAND SURFACE =         -40335.74
            SOIL ZONE =        2181828.54              SOIL ZONE =         -23757.89
     UNSATURATED ZONE =       -1361621.87       UNSATURATED ZONE =          -5207.07
       SATURATED ZONE =        -365220.83         SATURATED ZONE =          -4385.44

 OVERALL BUDGET ERROR =          -6100.65           BUDGET ERROR =            -22.47


  PERCENT DISCREPANCY =             -0.13    PERCENT DISCREPANCY =             -0.03



1
 SUMMARY VOLUMETRIC BUDGET FOR GSFLOW 
 DATE: 01 06 1981              CUMULATIVE TIME STEP:      98
 MODFLOW STRESS PERIOD      2     CURRENT TIME STEP:      98     ITERATIONS:       8

 -----------------------------------------------------------------------------------

   CUMULATIVE VOLUMES               L**3   RATES FOR THIS TIME STEP           L**3/T
   ------------------                      ------------------------

                                     IN                                         IN
                                     --                                         --
        PRECIPITATION =        5004445.43          PRECIPITATION =                  
           STREAMFLOW =                               STREAMFLOW =                  
     GW BOUNDARY FLOW =                         GW BOUNDARY FLOW =                  


                                    OUT                                        OUT
                                    ---                                        ---
   EVAPOTRANSPIRATION =        2383693.63     EVAPOTRANSPIRATION =          21388.78
           STREAMFLOW =        1365854.95             STREAMFLOW =          21178.02
     GW BOUNDARY FLOW =          63659.51       GW BOUNDARY FLOW =            651.25

   INFLOWS - OUTFLOWS =        1191237.34     INFLOWS - OUTFLOWS =         -43218.05
             --------                                   --------

 TOTAL STORAGE CHANGE =        1197552.46         STORAGE CHANGE =         -43183.24
       --------------                             --------------
         LAND SURFACE =         837080.27           LAND SURFACE =         -30417.06
            SOIL ZONE =        2192444.03              SOIL ZONE =           3033.55
     UNSATURATED ZONE =       -1428742.96       UNSATURATED ZONE =         -10079.43
       SATURATED ZONE =        -403228.87         SATURATED ZONE =          -5720.30

 OVERALL BUDGET ERROR =          -6315.12           BUDGET ERROR =            -34.81


  PERCENT DISCREPANCY =             -0.13    PERCENT DISCREPANCY =             -0.08



1
 SUMMARY VOLUMETRIC BUDGET FOR GSFLOW 
 DATE: 01 13 1981              CUMULATIVE TIME STEP:     105
 MODFLOW STRESS PERIOD      2     CURRENT TIME STEP:     105     ITERATIONS:       7

 -----------------------------------------------------------------------------------

   CUMULATIVE VOLUMES               L**3   RATES FOR THIS TIME STEP           L**3/T
   ------------------                      ------------------------

                                     IN                                         IN
                                     --                                         --
        PRECIPITATION =        5004445.43          PRECIPITATION =                  
           STREAMFLOW =                               STREAMFLOW =                  
     GW BOUNDARY FLOW =                         GW BOUNDARY FLOW =                  


                                    OUT                                        OUT
                                    ---                                        ---
   EVAPOTRANSPIRATION =        2601206.28     EVAPOTRANSPIRATION =          44455.00
           STREAMFLOW =        1513602.84             STREAMFLOW =          20001.01
     GW BOUNDARY FLOW =          68216.62       GW BOUNDARY FLOW =            650.83

   INFLOWS - OUTFLOWS =         821419.70     INFLOWS - OUTFLOWS =         -65106.85
             --------                                   --------

 TOTAL STORAGE CHANGE =         828122.01         STORAGE CHANGE =         -65046.20
       --------------                             --------------
         LAND SURFACE =         626702.00           LAND SURFACE =         -38991.59
            SOIL ZONE =        2141633.05              SOIL ZONE =         -10378.87
     UNSATURATED ZONE =       -1493727.25       UNSATURATED ZONE =          -9178.92
       SATURATED ZONE =        -446485.78         SATURATED ZONE =          -6496.83

 OVERALL BUDGET ERROR =          -6702.32           BUDGET ERROR =            -60.64


  PERCENT DISCREPANCY =             -0.13    PERCENT DISCREPANCY =             -0.09



1
 SUMMARY VOLUMETRIC BUDGET FOR GSFLOW 
 DATE: 01 20 1981              CUMULATIVE TIME STEP:     112
 MODFLOW STRESS PERIOD      2     CURRENT TIME STEP:     112     ITERATIONS:       8

 -----------------------------------------------------------------------------------

   CUMULATIVE VOLUMES               L**3   RATES FOR THIS TIME STEP           L**3/T
   ------------------                      ------------------------

                                     IN                                         IN
                                     --                                         --
        PRECIPITATION =        5170466.84          PRECIPITATION =          41505.35
           STREAMFLOW =                               STREAMFLOW =                  
     GW BOUNDARY FLOW =                         GW BOUNDARY FLOW =                  


                                    OUT                                        OUT
                                    ---                                        ---
   EVAPOTRANSPIRATION =        2883479.31     EVAPOTRANSPIRATION =          35211.70
           STREAMFLOW =        1654882.49             STREAMFLOW =          20081.89
     GW BOUNDARY FLOW =          72771.39       GW BOUNDARY FLOW =            650.64

   INFLOWS - OUTFLOWS =         559333.65     INFLOWS - OUTFLOWS =         -14438.87
             --------                                   --------

 TOTAL STORAGE CHANGE =         566365.10         STORAGE CHANGE =         -14404.02
       --------------                             --------------
         LAND SURFACE =         436285.42           LAND SURFACE =           4326.68
            SOIL ZONE =        2147568.00              SOIL ZONE =         -10126.14
     UNSATURATED ZONE =       -1526442.10       UNSATURATED ZONE =          -1926.04
       SATURATED ZONE =        -491046.21         SATURATED ZONE =          -6678.52

 OVERALL BUDGET ERROR =          -7031.46           BUDGET ERROR =            -34.85


  PERCENT DISCREPANCY =             -0.14    PERCENT DISCREPANCY =             -0.06



1
 SUMMARY VOLUMETRIC BUDGET FOR GSFLOW 
 DATE: 01 27 1981              CUMULATIVE TIME STEP:     119
 MODFLOW STRESS PERIOD      2     CURRENT TIME STEP:     119     ITERATIONS:       9

 -----------------------------------------------------------------------------------

   CUMULATIVE VOLUMES               L**3   RATES FOR THIS TIME STEP           L**3/T
   ------------------                      ------------------------

                                     IN                                         IN
                                     --                                         --
        PRECIPITATION =        8646540.08          PRECIPITATION =        2936503.63
           STREAMFLOW =                               STREAMFLOW =                  
     GW BOUNDARY FLOW =                         GW BOUNDARY FLOW =                  


                                    OUT                                        OUT
                                    ---                                        ---
   EVAPOTRANSPIRATION =        3118009.76     EVAPOTRANSPIRATION =          13120.97
           STREAMFLOW =        1800264.76             STREAMFLOW =          18658.64
     GW BOUNDARY FLOW =          77325.71       GW BOUNDARY FLOW =            650.44

   INFLOWS - OUTFLOWS =        3650939.84     INFLOWS - OUTFLOWS =        2904073.58
             --------                                   --------

 TOTAL STORAGE CHANGE =        3658125.81         STORAGE CHANGE =        2904098.41
       --------------                             --------------
         LAND SURFACE =        3540180.85           LAND SURFACE =        2923352.24
            SOIL ZONE =        2170146.12              SOIL ZONE =          -7528.77
     UNSATURATED ZONE =       -1515774.54       UNSATURATED ZONE =          -4807.89
       SATURATED ZONE =        -536426.61         SATURATED ZONE =          -6917.18

 OVERALL BUDGET ERROR =          -7185.97           BUDGET ERROR =            -24.83


  PERCENT DISCREPANCY =             -0.08    PERCENT DISCREPANCY =             -0.00



1
 SUMMARY VOLUMETRIC BUDGET FOR GSFLOW 
 DATE: 02 03 1981              CUMULATIVE TIME STEP:     126
 MODFLOW STRESS PERIOD      2     CURRENT TIME STEP:     126     ITERATIONS:       9

 -----------------------------------------------------------------------------------

   CUMULATIVE VOLUMES               L**3   RATES FOR THIS TIME STEP           L**3/T
   ------------------                      ------------------------

                                     IN                                         IN
                                     --                                         --
        PRECIPITATION =        1.1739D+07          PRECIPITATION =                  
           STREAMFLOW =                               STREAMFLOW =                  
     GW BOUNDARY FLOW =                         GW BOUNDARY FLOW =                  


                                    OUT                                        OUT
                                    ---                                        ---
   EVAPOTRANSPIRATION =        3154522.80     EVAPOTRANSPIRATION =           6975.48
           STREAMFLOW =        1926790.72             STREAMFLOW =          17967.84
     GW BOUNDARY FLOW =          81877.80       GW BOUNDARY FLOW =            650.25

   INFLOWS - OUTFLOWS =        6575497.45     INFLOWS - OUTFLOWS =         -25593.57
             --------                                   --------

 TOTAL STORAGE CHANGE =        6582913.80         STORAGE CHANGE =         -25567.50
       --------------                             --------------
         LAND SURFACE =        6595816.50           LAND SURFACE =          -6975.48
            SOIL ZONE =        2159025.09              SOIL ZONE =            484.76
     UNSATURATED ZONE =       -1583651.73       UNSATURATED ZONE =         -11360.03
       SATURATED ZONE =        -588276.07         SATURATED ZONE =          -7716.75

 OVERALL BUDGET ERROR =          -7416.35           BUDGET ERROR =            -26.07


  PERCENT DISCREPANCY =             -0.06    PERCENT DISCREPANCY =             -0.10



1
 SUMMARY VOLUMETRIC BUDGET FOR GSFLOW 
 DATE: 02 10 1981              CUMULATIVE TIME STEP:     133
 MODFLOW STRESS PERIOD      2     CURRENT TIME STEP:     133     ITERATIONS:       7

 -----------------------------------------------------------------------------------

   CUMULATIVE VOLUMES               L**3   RATES FOR THIS TIME STEP           L**3/T
   ------------------                      ------------------------

                                     IN                                         IN
                                     --                                         --
        PRECIPITATION =        1.1838D+07          PRECIPITATION =                  
           STREAMFLOW =                               STREAMFLOW =                  
     GW BOUNDARY FLOW =                         GW BOUNDARY FLOW =                  


                                    OUT                                        OUT
                                    ---                                        ---
   EVAPOTRANSPIRATION =        3279923.87     EVAPOTRANSPIRATION =          32880.06
           STREAMFLOW =        2052834.87             STREAMFLOW =          18033.48
     GW BOUNDARY FLOW =          86429.54       GW BOUNDARY FLOW =            650.24

   INFLOWS - OUTFLOWS =        6419064.99     INFLOWS - OUTFLOWS =         -51563.78
             --------                                   --------

 TOTAL STORAGE CHANGE =        6426748.45         STORAGE CHANGE =         -51489.45
       --------------                             --------------
         LAND SURFACE =        6569979.95           LAND SURFACE =         -32880.06
            SOIL ZONE =        2163253.79              SOIL ZONE =            586.19
     UNSATURATED ZONE =       -1661829.51       UNSATURATED ZONE =         -10834.35
       SATURATED ZONE =        -644655.77         SATURATED ZONE =          -8361.24

 OVERALL BUDGET ERROR =          -7683.45           BUDGET ERROR =            -74.33


  PERCENT DISCREPANCY =             -0.06    PERCENT DISCREPANCY =             -0.14



1
 SUMMARY VOLUMETRIC BUDGET FOR GSFLOW 
 DATE: 02 17 1981              CUMULATIVE TIME STEP:     140
 MODFLOW STRESS PERIOD      2     CURRENT TIME STEP:     140     ITERATIONS:      14

 -----------------------------------------------------------------------------------

   CUMULATIVE VOLUMES               L**3   RATES FOR THIS TIME STEP           L**3/T
   ------------------                      ------------------------

                                     IN                                         IN
                                     --                                         --
        PRECIPITATION =        1.2765D+07          PRECIPITATION =          68929.28
           STREAMFLOW =                               STREAMFLOW =                  
     GW BOUNDARY FLOW =                         GW BOUNDARY FLOW =                  


                                    OUT                                        OUT
                                    ---                                        ---
   EVAPOTRANSPIRATION =        3618021.66     EVAPOTRANSPIRATION =          68607.56
           STREAMFLOW =        2594002.38             STREAMFLOW =         124795.28
     GW BOUNDARY FLOW =          91003.32       GW BOUNDARY FLOW =            656.82

   INFLOWS - OUTFLOWS =        6461941.75     INFLOWS - OUTFLOWS =        -125130.39
             --------                                   --------

 TOTAL STORAGE CHANGE =        6469899.89         STORAGE CHANGE =        -125116.23
       --------------                             --------------
         LAND SURFACE =        5590061.11           LAND SURFACE =        -278671.93
            SOIL ZONE =        2957464.81              SOIL ZONE =          72147.19
     UNSATURATED ZONE =       -1416560.89       UNSATURATED ZONE =          78966.96
       SATURATED ZONE =        -661065.14         SATURATED ZONE =           2441.55

 OVERALL BUDGET ERROR =          -7958.15           BUDGET ERROR =            -14.16


  PERCENT DISCREPANCY =             -0.06    PERCENT DISCREPANCY =             -0.01



1
 SUMMARY VOLUMETRIC BUDGET FOR GSFLOW 
 DATE: 02 24 1981              CUMULATIVE TIME STEP:     147
 MODFLOW STRESS PERIOD      2     CURRENT TIME STEP:     147     ITERATIONS:      14

 -----------------------------------------------------------------------------------

   CUMULATIVE VOLUMES               L**3   RATES FOR THIS TIME STEP           L**3/T
   ------------------                      ------------------------

                                     IN                                         IN
                                     --                                         --
        PRECIPITATION =        1.3179D+07          PRECIPITATION =         344646.37
           STREAMFLOW =                               STREAMFLOW =                  
     GW BOUNDARY FLOW =                         GW BOUNDARY FLOW =                  


                                    OUT                                        OUT
                                    ---                                        ---
   EVAPOTRANSPIRATION =        3959343.25     EVAPOTRANSPIRATION =          18832.76
           STREAMFLOW =        3151296.27             STREAMFLOW =          52010.81
     GW BOUNDARY FLOW =          95596.36       GW BOUNDARY FLOW =            655.14

   INFLOWS - OUTFLOWS =        5972308.87     INFLOWS - OUTFLOWS =         273147.66
             --------                                   --------

 TOTAL STORAGE CHANGE =        5980234.41         STORAGE CHANGE =         273149.94
       --------------                             --------------
         LAND SURFACE =        4984244.21           LAND SURFACE =         286368.61
            SOIL ZONE =        2697055.24              SOIL ZONE =         -43259.34
     UNSATURATED ZONE =       -1063480.79       UNSATURATED ZONE =          27624.34
       SATURATED ZONE =        -637584.25         SATURATED ZONE =           2416.33

 OVERALL BUDGET ERROR =          -7925.53           BUDGET ERROR =             -2.28


  PERCENT DISCREPANCY =             -0.06    PERCENT DISCREPANCY =             -0.00



1
 SUMMARY VOLUMETRIC BUDGET FOR GSFLOW 
 DATE: 03 03 1981              CUMULATIVE TIME STEP:     154
 MODFLOW STRESS PERIOD      2     CURRENT TIME STEP:     154     ITERATIONS:      11

 -----------------------------------------------------------------------------------

   CUMULATIVE VOLUMES               L**3   RATES FOR THIS TIME STEP           L**3/T
   ------------------                      ------------------------

                                     IN                                         IN
                                     --                                         --
        PRECIPITATION =        1.3447D+07          PRECIPITATION =                  
           STREAMFLOW =                               STREAMFLOW =                  
     GW BOUNDARY FLOW =                         GW BOUNDARY FLOW =                  


                                    OUT                                        OUT
                                    ---                                        ---
   EVAPOTRANSPIRATION =        4120025.98     EVAPOTRANSPIRATION =          45353.75
           STREAMFLOW =        3375080.72             STREAMFLOW =          27755.62
     GW BOUNDARY FLOW =         100169.25       GW BOUNDARY FLOW =            652.32

   INFLOWS - OUTFLOWS =        5851327.10     INFLOWS - OUTFLOWS =         -73761.68
             --------                                   --------

 TOTAL STORAGE CHANGE =        5859141.90         STORAGE CHANGE =         -73780.73
       --------------                             --------------
         LAND SURFACE =        5068137.30           LAND SURFACE =         -66041.98
            SOIL ZONE =        2489341.38              SOIL ZONE =           2843.65
     UNSATURATED ZONE =       -1055833.71       UNSATURATED ZONE =          -8515.70
       SATURATED ZONE =        -642503.07         SATURATED ZONE =          -2066.69

 OVERALL BUDGET ERROR =          -7814.80           BUDGET ERROR =             19.05


  PERCENT DISCREPANCY =             -0.06    PERCENT DISCREPANCY =              0.03



1
 SUMMARY VOLUMETRIC BUDGET FOR GSFLOW 
 DATE: 03 10 1981              CUMULATIVE TIME STEP:     161
 MODFLOW STRESS PERIOD      2     CURRENT TIME STEP:     161     ITERATIONS:      10

 -----------------------------------------------------------------------------------

   CUMULATIVE VOLUMES               L**3   RATES FOR THIS TIME STEP           L**3/T
   ------------------                      ------------------------

                                     IN                                         IN
                                     --                                         --
        PRECIPITATION =        1.3493D+07          PRECIPITATION =                  
           STREAMFLOW =                               STREAMFLOW =                  
     GW BOUNDARY FLOW =                         GW BOUNDARY FLOW =                  


                                    OUT                                        OUT
                                    ---                                        ---
   EVAPOTRANSPIRATION =        4465815.56     EVAPOTRANSPIRATION =          72811.00
           STREAMFLOW =        3610965.21             STREAMFLOW =          43640.66
     GW BOUNDARY FLOW =         104735.29       GW BOUNDARY FLOW =            652.93

   INFLOWS - OUTFLOWS =        5311425.10     INFLOWS - OUTFLOWS =        -117104.59
             --------                                   --------

 TOTAL STORAGE CHANGE =        5319170.54         STORAGE CHANGE =        -117113.26
       --------------                             --------------
         LAND SURFACE =        4391652.96           LAND SURFACE =        -169089.79
            SOIL ZONE =        2603392.06              SOIL ZONE =          28907.11
     UNSATURATED ZONE =       -1021441.86       UNSATURATED ZONE =          23464.19
       SATURATED ZONE =        -654432.62         SATURATED ZONE =           -394.77

 OVERALL BUDGET ERROR =          -7745.44           BUDGET ERROR =              8.67


  PERCENT DISCREPANCY =             -0.06    PERCENT DISCREPANCY =              0.01



1
 SUMMARY VOLUMETRIC BUDGET FOR GSFLOW 
 DATE: 03 17 1981              CUMULATIVE TIME STEP:     168
 MODFLOW STRESS PERIOD      2     CURRENT TIME STEP:     168     ITERATIONS:       9

 -----------------------------------------------------------------------------------

   CUMULATIVE VOLUMES               L**3   RATES FOR THIS TIME STEP           L**3/T
   ------------------                      ------------------------

                                     IN                                         IN
                                     --                                         --
        PRECIPITATION =        1.3744D+07          PRECIPITATION =                  
           STREAMFLOW =                               STREAMFLOW =                  
     GW BOUNDARY FLOW =                         GW BOUNDARY FLOW =                  


                                    OUT                                        OUT
                                    ---                                        ---
   EVAPOTRANSPIRATION =        4834225.32     EVAPOTRANSPIRATION =          40234.36
           STREAMFLOW =        3837924.78             STREAMFLOW =          24123.64
     GW BOUNDARY FLOW =         109302.55       GW BOUNDARY FLOW =            651.87

   INFLOWS - OUTFLOWS =        4963038.24     INFLOWS - OUTFLOWS =         -65009.88
             --------                                   --------

 TOTAL STORAGE CHANGE =        4970690.49         STORAGE CHANGE =         -65019.19
       --------------                             --------------
         LAND SURFACE =        4202420.66           LAND SURFACE =         -39897.13
            SOIL ZONE =        2437967.18              SOIL ZONE =          -5415.56
     UNSATURATED ZONE =        -999396.40       UNSATURATED ZONE =         -15650.34
       SATURATED ZONE =        -670300.94         SATURATED ZONE =          -4056.16

 OVERALL BUDGET ERROR =          -7652.25           BUDGET ERROR =              9.31


  PERCENT DISCREPANCY =             -0.06    PERCENT DISCREPANCY =              0.01



1
 SUMMARY VOLUMETRIC BUDGET FOR GSFLOW 
 DATE: 03 24 1981              CUMULATIVE TIME STEP:     175
 MODFLOW STRESS PERIOD      2     CURRENT TIME STEP:     175     ITERATIONS:       9

 -----------------------------------------------------------------------------------

   CUMULATIVE VOLUMES               L**3   RATES FOR THIS TIME STEP           L**3/T
   ------------------                      ------------------------

                                     IN                                         IN
                                     --                                         --
        PRECIPITATION =        1.4367D+07          PRECIPITATION =                  
           STREAMFLOW =                               STREAMFLOW =                  
     GW BOUNDARY FLOW =                         GW BOUNDARY FLOW =                  


                                    OUT                                        OUT
                                    ---                                        ---
   EVAPOTRANSPIRATION =        5190002.65     EVAPOTRANSPIRATION =          87428.11
           STREAMFLOW =        4013571.23             STREAMFLOW =          26792.02
     GW BOUNDARY FLOW =         113862.98       GW BOUNDARY FLOW =            651.45

   INFLOWS - OUTFLOWS =        5049308.66     INFLOWS - OUTFLOWS =        -114871.58
             --------                                   --------

 TOTAL STORAGE CHANGE =        5056988.56         STORAGE CHANGE =        -114872.63
       --------------                             --------------
         LAND SURFACE =        4477696.10           LAND SURFACE =         -65035.10
            SOIL ZONE =        2350761.76              SOIL ZONE =         -41060.99
     UNSATURATED ZONE =       -1068615.55       UNSATURATED ZONE =          -3966.33
       SATURATED ZONE =        -702853.75         SATURATED ZONE =          -4810.22

 OVERALL BUDGET ERROR =          -7679.90           BUDGET ERROR =              1.05


  PERCENT DISCREPANCY =             -0.05    PERCENT DISCREPANCY =              0.00



1
 SUMMARY VOLUMETRIC BUDGET FOR GSFLOW 
 DATE: 03 31 1981              CUMULATIVE TIME STEP:     182
 MODFLOW STRESS PERIOD      2     CURRENT TIME STEP:     182     ITERATIONS:      12

 -----------------------------------------------------------------------------------

   CUMULATIVE VOLUMES               L**3   RATES FOR THIS TIME STEP           L**3/T
   ------------------                      ------------------------

                                     IN                                         IN
                                     --                                         --
        PRECIPITATION =        1.5777D+07          PRECIPITATION =                  
           STREAMFLOW =                               STREAMFLOW =                  
     GW BOUNDARY FLOW =                         GW BOUNDARY FLOW =                  


                                    OUT                                        OUT
                                    ---                                        ---
   EVAPOTRANSPIRATION =        5619940.04     EVAPOTRANSPIRATION =          54090.27
           STREAMFLOW =        4522355.88             STREAMFLOW =          37103.99
     GW BOUNDARY FLOW =         118444.98       GW BOUNDARY FLOW =            653.60

   INFLOWS - OUTFLOWS =        5516007.08     INFLOWS - OUTFLOWS =         -91847.86
             --------                                   --------

 TOTAL STORAGE CHANGE =        5523619.65         STORAGE CHANGE =         -91863.19
       --------------                             --------------
         LAND SURFACE =        4494242.70           LAND SURFACE =         -55488.75
            SOIL ZONE =        2547235.53              SOIL ZONE =         -41751.81
     UNSATURATED ZONE =        -823293.10       UNSATURATED ZONE =           5946.06
       SATURATED ZONE =        -694565.48         SATURATED ZONE =           -568.69

 OVERALL BUDGET ERROR =          -7612.57           BUDGET ERROR =             15.34


  PERCENT DISCREPANCY =             -0.05    PERCENT DISCREPANCY =              0.02



1
 SUMMARY VOLUMETRIC BUDGET FOR GSFLOW 
 DATE: 04 07 1981              CUMULATIVE TIME STEP:     189
 MODFLOW STRESS PERIOD      2     CURRENT TIME STEP:     189     ITERATIONS:      10

 -----------------------------------------------------------------------------------

   CUMULATIVE VOLUMES               L**3   RATES FOR THIS TIME STEP           L**3/T
   ------------------                      ------------------------

                                     IN                                         IN
                                     --                                         --
        PRECIPITATION =        1.6121D+07          PRECIPITATION =                  
           STREAMFLOW =                               STREAMFLOW =                  
     GW BOUNDARY FLOW =                         GW BOUNDARY FLOW =                  


                                    OUT                                        OUT
                                    ---                                        ---
   EVAPOTRANSPIRATION =        6246006.28     EVAPOTRANSPIRATION =         103845.38
           STREAMFLOW =        4840641.46             STREAMFLOW =          43396.18
     GW BOUNDARY FLOW =         123020.28       GW BOUNDARY FLOW =            653.73

   INFLOWS - OUTFLOWS =        4911799.58     INFLOWS - OUTFLOWS =        -147895.30
             --------                                   --------

 TOTAL STORAGE CHANGE =        4919280.58         STORAGE CHANGE =        -147922.19
       --------------                             --------------
         LAND SURFACE =        3870170.34           LAND SURFACE =        -138668.80
            SOIL ZONE =        2478554.30              SOIL ZONE =         -20336.66
     UNSATURATED ZONE =        -738870.34       UNSATURATED ZONE =          10761.10
       SATURATED ZONE =        -690573.72         SATURATED ZONE =            322.17

 OVERALL BUDGET ERROR =          -7481.00           BUDGET ERROR =             26.89


  PERCENT DISCREPANCY =             -0.05    PERCENT DISCREPANCY =              0.02



1
 SUMMARY VOLUMETRIC BUDGET FOR GSFLOW 
 DATE: 04 14 1981              CUMULATIVE TIME STEP:     196
 MODFLOW STRESS PERIOD      2     CURRENT TIME STEP:     196     ITERATIONS:      13

 -----------------------------------------------------------------------------------

   CUMULATIVE VOLUMES               L**3   RATES FOR THIS TIME STEP           L**3/T
   ------------------                      ------------------------

                                     IN                                         IN
                                     --                                         --
        PRECIPITATION =        1.6121D+07          PRECIPITATION =                  
           STREAMFLOW =                               STREAMFLOW =                  
     GW BOUNDARY FLOW =                         GW BOUNDARY FLOW =                  


                                    OUT                                        OUT
                                    ---                                        ---
   EVAPOTRANSPIRATION =        7156695.80     EVAPOTRANSPIRATION =         191911.71
           STREAMFLOW =        5167773.03             STREAMFLOW =          55462.56
     GW BOUNDARY FLOW =         127595.66       GW BOUNDARY FLOW =            653.68

   INFLOWS - OUTFLOWS =        3669403.12     INFLOWS - OUTFLOWS =        -248027.95
             --------                                   --------

 TOTAL STORAGE CHANGE =        3676770.86         STORAGE CHANGE =        -248036.10
       --------------                             --------------
         LAND SURFACE =        2621455.95           LAND SURFACE =        -253007.68
            SOIL ZONE =        2386982.12              SOIL ZONE =         -16793.11
     UNSATURATED ZONE =        -647789.79       UNSATURATED ZONE =          19711.33
       SATURATED ZONE =        -683877.42         SATURATED ZONE =           2053.36

 OVERALL BUDGET ERROR =          -7367.74           BUDGET ERROR =              8.15


  PERCENT DISCREPANCY =             -0.05    PERCENT DISCREPANCY =              0.00



1
 SUMMARY VOLUMETRIC BUDGET FOR GSFLOW 
 DATE: 04 21 1981              CUMULATIVE TIME STEP:     203
 MODFLOW STRESS PERIOD      2     CURRENT TIME STEP:     203     ITERATIONS:      12

 -----------------------------------------------------------------------------------

   CUMULATIVE VOLUMES               L**3   RATES FOR THIS TIME STEP           L**3/T
   ------------------                      ------------------------

                                     IN                                         IN
                                     --                                         --
        PRECIPITATION =        1.6310D+07          PRECIPITATION =                  
           STREAMFLOW =                               STREAMFLOW =                  
     GW BOUNDARY FLOW =                         GW BOUNDARY FLOW =                  


                                    OUT                                        OUT
                                    ---                                        ---
   EVAPOTRANSPIRATION =        8228657.91     EVAPOTRANSPIRATION =         152246.51
           STREAMFLOW =        5506950.41             STREAMFLOW =          45782.50
     GW BOUNDARY FLOW =         132167.10       GW BOUNDARY FLOW =            652.63

   INFLOWS - OUTFLOWS =        2442467.22     INFLOWS - OUTFLOWS =        -198681.65
             --------                                   --------

 TOTAL STORAGE CHANGE =        2449710.53         STORAGE CHANGE =        -198713.74
       --------------                             --------------
         LAND SURFACE =        1440926.23           LAND SURFACE =        -121359.42
            SOIL ZONE =        2205130.64              SOIL ZONE =         -97194.09
     UNSATURATED ZONE =        -529423.66       UNSATURATED ZONE =          16974.67
       SATURATED ZONE =        -666922.69         SATURATED ZONE =           2865.09

 OVERALL BUDGET ERROR =          -7243.31           BUDGET ERROR =             32.10


  PERCENT DISCREPANCY =             -0.04    PERCENT DISCREPANCY =              0.02



1
 SUMMARY VOLUMETRIC BUDGET FOR GSFLOW 
 DATE: 04 28 1981              CUMULATIVE TIME STEP:     210
 MODFLOW STRESS PERIOD      2     CURRENT TIME STEP:     210     ITERATIONS:      14

 -----------------------------------------------------------------------------------

   CUMULATIVE VOLUMES               L**3   RATES FOR THIS TIME STEP           L**3/T
   ------------------                      ------------------------

                                     IN                                         IN
                                     --                                         --
        PRECIPITATION =        1.6515D+07          PRECIPITATION =                  
           STREAMFLOW =                               STREAMFLOW =                  
     GW BOUNDARY FLOW =                         GW BOUNDARY FLOW =                  


                                    OUT                                        OUT
                                    ---                                        ---
   EVAPOTRANSPIRATION =        9467121.64     EVAPOTRANSPIRATION =         200395.18
           STREAMFLOW =        5719028.83             STREAMFLOW =          24666.58
     GW BOUNDARY FLOW =         136726.59       GW BOUNDARY FLOW =            650.47

   INFLOWS - OUTFLOWS =        1192555.82     INFLOWS - OUTFLOWS =        -225712.23
             --------                                   --------

 TOTAL STORAGE CHANGE =        1199687.59         STORAGE CHANGE =        -225731.99
       --------------                             --------------
         LAND SURFACE =         691530.95           LAND SURFACE =         -83509.90
            SOIL ZONE =        1694928.62              SOIL ZONE =        -138423.26
     UNSATURATED ZONE =        -527339.62       UNSATURATED ZONE =          -4062.94
       SATURATED ZONE =        -659432.36         SATURATED ZONE =            264.11

 OVERALL BUDGET ERROR =          -7131.77           BUDGET ERROR =             19.76


  PERCENT DISCREPANCY =             -0.04    PERCENT DISCREPANCY =              0.01



1
 SUMMARY VOLUMETRIC BUDGET FOR GSFLOW 
 DATE: 05 05 1981              CUMULATIVE TIME STEP:     217
 MODFLOW STRESS PERIOD      2     CURRENT TIME STEP:     217     ITERATIONS:      13

 -----------------------------------------------------------------------------------

   CUMULATIVE VOLUMES               L**3   RATES FOR THIS TIME STEP           L**3/T
   ------------------                      ------------------------

                                     IN                                         IN
                                     --                                         --
        PRECIPITATION =        1.6515D+07          PRECIPITATION =                  
           STREAMFLOW =                               STREAMFLOW =                  
     GW BOUNDARY FLOW =                         GW BOUNDARY FLOW =                  


                                    OUT                                        OUT
                                    ---                                        ---
   EVAPOTRANSPIRATION =        1.0318D+07     EVAPOTRANSPIRATION =          47812.19
           STREAMFLOW =        5824927.44             STREAMFLOW =          10857.23
     GW BOUNDARY FLOW =         141273.00       GW BOUNDARY FLOW =            648.80

   INFLOWS - OUTFLOWS =         231363.25     INFLOWS - OUTFLOWS =         -59318.23
             --------                                   --------

 TOTAL STORAGE CHANGE =         238442.54         STORAGE CHANGE =         -59317.91
       --------------                             --------------
         LAND SURFACE =         347350.75           LAND SURFACE =         -17502.06
            SOIL ZONE =        1187013.86              SOIL ZONE =         -23041.56
     UNSATURATED ZONE =        -623340.91       UNSATURATED ZONE =         -15748.40
       SATURATED ZONE =        -672581.16         SATURATED ZONE =          -3025.89

 OVERALL BUDGET ERROR =          -7079.30           BUDGET ERROR =             -0.32


  PERCENT DISCREPANCY =             -0.04    PERCENT DISCREPANCY =             -0.00



1
 SUMMARY VOLUMETRIC BUDGET FOR GSFLOW 
 DATE: 05 12 1981              CUMULATIVE TIME STEP:     224
 MODFLOW STRESS PERIOD      2     CURRENT TIME STEP:     224     ITERATIONS:      18

 -----------------------------------------------------------------------------------

   CUMULATIVE VOLUMES               L**3   RATES FOR THIS TIME STEP           L**3/T
   ------------------                      ------------------------

                                     IN                                         IN
                                     --                                         --
        PRECIPITATION =        1.6515D+07          PRECIPITATION =                  
           STREAMFLOW =                               STREAMFLOW =                  
     GW BOUNDARY FLOW =                         GW BOUNDARY FLOW =                  


                                    OUT                                        OUT
                                    ---                                        ---
   EVAPOTRANSPIRATION =        1.0809D+07     EVAPOTRANSPIRATION =          90794.75
           STREAMFLOW =        5895984.67             STREAMFLOW =          10476.92
     GW BOUNDARY FLOW =         145811.67       GW BOUNDARY FLOW =            648.22

   INFLOWS - OUTFLOWS =        -335295.62     INFLOWS - OUTFLOWS =        -101919.88
             --------                                   --------

 TOTAL STORAGE CHANGE =        -328213.59         STORAGE CHANGE =        -101911.39
       --------------                             --------------
         LAND SURFACE =         198678.97           LAND SURFACE =         -25500.84
            SOIL ZONE =         903440.89              SOIL ZONE =         -57625.95
     UNSATURATED ZONE =        -728110.51       UNSATURATED ZONE =         -13418.51
       SATURATED ZONE =        -702222.93         SATURATED ZONE =          -5366.09

 OVERALL BUDGET ERROR =          -7082.03           BUDGET ERROR =             -8.50


  PERCENT DISCREPANCY =             -0.04    PERCENT DISCREPANCY =             -0.01



1
 SUMMARY VOLUMETRIC BUDGET FOR GSFLOW 
 DATE: 05 19 1981              CUMULATIVE TIME STEP:     231
 MODFLOW STRESS PERIOD      2     CURRENT TIME STEP:     231     ITERATIONS:      17

 -----------------------------------------------------------------------------------

   CUMULATIVE VOLUMES               L**3   RATES FOR THIS TIME STEP           L**3/T
   ------------------                      ------------------------

                                     IN                                         IN
                                     --                                         --
        PRECIPITATION =        1.7837D+07          PRECIPITATION =         169045.43
           STREAMFLOW =                               STREAMFLOW =                  
     GW BOUNDARY FLOW =                         GW BOUNDARY FLOW =                  


                                    OUT                                        OUT
                                    ---                                        ---
   EVAPOTRANSPIRATION =        1.1152D+07     EVAPOTRANSPIRATION =          32129.65
           STREAMFLOW =        6027009.84             STREAMFLOW =          27330.84
     GW BOUNDARY FLOW =         150351.18       GW BOUNDARY FLOW =            649.57

   INFLOWS - OUTFLOWS =         507430.43     INFLOWS - OUTFLOWS =         108935.36
             --------                                   --------

 TOTAL STORAGE CHANGE =         514512.82         STORAGE CHANGE =         108935.70
       --------------                             --------------
         LAND SURFACE =         167097.84           LAND SURFACE =           4534.24
            SOIL ZONE =        1884125.49              SOIL ZONE =         110167.19
     UNSATURATED ZONE =        -795560.21       UNSATURATED ZONE =           -525.81
       SATURATED ZONE =        -741150.31         SATURATED ZONE =          -5239.91

 OVERALL BUDGET ERROR =          -7082.39           BUDGET ERROR =             -0.34


  PERCENT DISCREPANCY =             -0.04    PERCENT DISCREPANCY =             -0.00



1
 SUMMARY VOLUMETRIC BUDGET FOR GSFLOW 
 DATE: 05 26 1981              CUMULATIVE TIME STEP:     238
 MODFLOW STRESS PERIOD      2     CURRENT TIME STEP:     238     ITERATIONS:      14

 -----------------------------------------------------------------------------------

   CUMULATIVE VOLUMES               L**3   RATES FOR THIS TIME STEP           L**3/T
   ------------------                      ------------------------

                                     IN                                         IN
                                     --                                         --
        PRECIPITATION =        1.8252D+07          PRECIPITATION =         284303.67
           STREAMFLOW =                               STREAMFLOW =                  
     GW BOUNDARY FLOW =                         GW BOUNDARY FLOW =                  


                                    OUT                                        OUT
                                    ---                                        ---
   EVAPOTRANSPIRATION =        1.1981D+07     EVAPOTRANSPIRATION =         133987.99
           STREAMFLOW =        6140432.68             STREAMFLOW =          19479.17
     GW BOUNDARY FLOW =         154892.64       GW BOUNDARY FLOW =            648.54

   INFLOWS - OUTFLOWS =         -23991.59     INFLOWS - OUTFLOWS =         130187.98
             --------                                   --------

 TOTAL STORAGE CHANGE =         -16902.84         STORAGE CHANGE =         130195.82
       --------------                             --------------
         LAND SURFACE =          96880.49           LAND SURFACE =          -7049.94
            SOIL ZONE =        1526851.83              SOIL ZONE =         154554.48
     UNSATURATED ZONE =        -852193.75       UNSATURATED ZONE =         -10638.17
       SATURATED ZONE =        -788441.41         SATURATED ZONE =          -6670.55

 OVERALL BUDGET ERROR =          -7088.75           BUDGET ERROR =             -7.84


  PERCENT DISCREPANCY =             -0.04    PERCENT DISCREPANCY =             -0.00



1
 SUMMARY VOLUMETRIC BUDGET FOR GSFLOW 
 DATE: 06 02 1981              CUMULATIVE TIME STEP:     245
 MODFLOW STRESS PERIOD      2     CURRENT TIME STEP:     245     ITERATIONS:      14

 -----------------------------------------------------------------------------------

   CUMULATIVE VOLUMES               L**3   RATES FOR THIS TIME STEP           L**3/T
   ------------------                      ------------------------

                                     IN                                         IN
                                     --                                         --
        PRECIPITATION =        1.8318D+07          PRECIPITATION =          50869.96
           STREAMFLOW =                               STREAMFLOW =                  
     GW BOUNDARY FLOW =                         GW BOUNDARY FLOW =                  


                                    OUT                                        OUT
                                    ---                                        ---
   EVAPOTRANSPIRATION =        1.2776D+07     EVAPOTRANSPIRATION =          68974.08
           STREAMFLOW =        6211166.81             STREAMFLOW =           7782.38
     GW BOUNDARY FLOW =         159427.97       GW BOUNDARY FLOW =            647.45

   INFLOWS - OUTFLOWS =        -828701.35     INFLOWS - OUTFLOWS =         -26533.95
             --------                                   --------

 TOTAL STORAGE CHANGE =        -821605.92         STORAGE CHANGE =         -26535.60
       --------------                             --------------
         LAND SURFACE =          61812.20           LAND SURFACE =          30830.75
            SOIL ZONE =         901587.87              SOIL ZONE =         -35337.24
     UNSATURATED ZONE =        -939540.47       UNSATURATED ZONE =         -13582.03
       SATURATED ZONE =        -845465.52         SATURATED ZONE =          -8447.08

 OVERALL BUDGET ERROR =          -7095.43           BUDGET ERROR =              1.65


  PERCENT DISCREPANCY =             -0.04    PERCENT DISCREPANCY =              0.00



1
 SUMMARY VOLUMETRIC BUDGET FOR GSFLOW 
 DATE: 06 09 1981              CUMULATIVE TIME STEP:     252
 MODFLOW STRESS PERIOD      2     CURRENT TIME STEP:     252     ITERATIONS:      13

 -----------------------------------------------------------------------------------

   CUMULATIVE VOLUMES               L**3   RATES FOR THIS TIME STEP           L**3/T
   ------------------                      ------------------------

                                     IN                                         IN
                                     --                                         --
        PRECIPITATION =        1.8318D+07          PRECIPITATION =                  
           STREAMFLOW =                               STREAMFLOW =                  
     GW BOUNDARY FLOW =                         GW BOUNDARY FLOW =                  


                                    OUT                                        OUT
                                    ---                                        ---
   EVAPOTRANSPIRATION =        1.3269D+07     EVAPOTRANSPIRATION =          51443.32
           STREAMFLOW =        6258986.32             STREAMFLOW =           6425.24
     GW BOUNDARY FLOW =         163957.91       GW BOUNDARY FLOW =            646.96

   INFLOWS - OUTFLOWS =       -1373947.37     INFLOWS - OUTFLOWS =         -58515.52
             --------                                   --------

 TOTAL STORAGE CHANGE =       -1366817.78         STORAGE CHANGE =         -58514.89
       --------------                             --------------
         LAND SURFACE =           8252.08           LAND SURFACE =          -1595.17
            SOIL ZONE =         565110.76              SOIL ZONE =         -34710.62
     UNSATURATED ZONE =       -1032941.00       UNSATURATED ZONE =         -13195.12
       SATURATED ZONE =        -907239.62         SATURATED ZONE =          -9013.98

 OVERALL BUDGET ERROR =          -7129.59           BUDGET ERROR =             -0.63


  PERCENT DISCREPANCY =             -0.04    PERCENT DISCREPANCY =             -0.00



1
 SUMMARY VOLUMETRIC BUDGET FOR GSFLOW 
 DATE: 06 16 1981              CUMULATIVE TIME STEP:     259
 MODFLOW STRESS PERIOD      2     CURRENT TIME STEP:     259     ITERATIONS:      17

 -----------------------------------------------------------------------------------

   CUMULATIVE VOLUMES               L**3   RATES FOR THIS TIME STEP           L**3/T
   ------------------                      ------------------------

                                     IN                                         IN
                                     --                                         --
        PRECIPITATION =        1.8318D+07          PRECIPITATION =                  
           STREAMFLOW =                               STREAMFLOW =                  
     GW BOUNDARY FLOW =                         GW BOUNDARY FLOW =                  


                                    OUT                                        OUT
                                    ---                                        ---
   EVAPOTRANSPIRATION =        1.3461D+07     EVAPOTRANSPIRATION =          45201.78
           STREAMFLOW =        6302668.19             STREAMFLOW =           6169.99
     GW BOUNDARY FLOW =         168485.72       GW BOUNDARY FLOW =            646.75

   INFLOWS - OUTFLOWS =       -1613451.89     INFLOWS - OUTFLOWS =         -52018.51
             --------                                   --------

 TOTAL STORAGE CHANGE =       -1606300.07         STORAGE CHANGE =         -52020.73
       --------------                             --------------
         LAND SURFACE =           3425.60           LAND SURFACE =           -943.52
            SOIL ZONE =         484622.58              SOIL ZONE =         -29185.57
     UNSATURATED ZONE =       -1122920.44       UNSATURATED ZONE =         -12615.15
       SATURATED ZONE =        -971427.81         SATURATED ZONE =          -9276.49

 OVERALL BUDGET ERROR =          -7151.82           BUDGET ERROR =              2.22


  PERCENT DISCREPANCY =             -0.04    PERCENT DISCREPANCY =              0.00



1
 SUMMARY VOLUMETRIC BUDGET FOR GSFLOW 
 DATE: 06 23 1981              CUMULATIVE TIME STEP:     266
 MODFLOW STRESS PERIOD      2     CURRENT TIME STEP:     266     ITERATIONS:      14

 -----------------------------------------------------------------------------------

   CUMULATIVE VOLUMES               L**3   RATES FOR THIS TIME STEP           L**3/T
   ------------------                      ------------------------

                                     IN                                         IN
                                     --                                         --
        PRECIPITATION =        1.8318D+07          PRECIPITATION =                  
           STREAMFLOW =                               STREAMFLOW =                  
     GW BOUNDARY FLOW =                         GW BOUNDARY FLOW =                  


                                    OUT                                        OUT
                                    ---                                        ---
   EVAPOTRANSPIRATION =        1.3758D+07     EVAPOTRANSPIRATION =          34785.80
           STREAMFLOW =        6344801.66             STREAMFLOW =           5940.92
     GW BOUNDARY FLOW =         173012.23       GW BOUNDARY FLOW =            646.57

   INFLOWS - OUTFLOWS =       -1957919.10     INFLOWS - OUTFLOWS =         -41373.29
             --------                                   --------

 TOTAL STORAGE CHANGE =       -1950735.54         STORAGE CHANGE =         -41366.19
       --------------                             --------------
         LAND SURFACE =                             LAND SURFACE =                  
            SOIL ZONE =         295633.85              SOIL ZONE =         -19770.77
     UNSATURATED ZONE =       -1208415.17       UNSATURATED ZONE =         -11797.09
       SATURATED ZONE =       -1037954.22         SATURATED ZONE =          -9798.33

 OVERALL BUDGET ERROR =          -7183.56           BUDGET ERROR =             -7.10


  PERCENT DISCREPANCY =             -0.04    PERCENT DISCREPANCY =             -0.02



1
 SUMMARY VOLUMETRIC BUDGET FOR GSFLOW 
 DATE: 06 30 1981              CUMULATIVE TIME STEP:     273
 MODFLOW STRESS PERIOD      2     CURRENT TIME STEP:     273     ITERATIONS:       9

 -----------------------------------------------------------------------------------

   CUMULATIVE VOLUMES               L**3   RATES FOR THIS TIME STEP           L**3/T
   ------------------                      ------------------------

                                     IN                                         IN
[...]
   ------------------                      ------------------------

                                     IN                                         IN
                                     --                                         --
        PRECIPITATION =        4.6511D+08          PRECIPITATION =                  
           STREAMFLOW =                               STREAMFLOW =                  
     GW BOUNDARY FLOW =                         GW BOUNDARY FLOW =                  


                                    OUT                                        OUT
                                    ---                                        ---
   EVAPOTRANSPIRATION =        2.8409D+08     EVAPOTRANSPIRATION =          30463.23
           STREAMFLOW =        1.8494D+08             STREAMFLOW =           6864.56
     GW BOUNDARY FLOW =        3740914.86       GW BOUNDARY FLOW =            650.45

   INFLOWS - OUTFLOWS =       -7660808.92     INFLOWS - OUTFLOWS =         -37978.24
             --------                                   --------

 TOTAL STORAGE CHANGE =       -7559932.95         STORAGE CHANGE =         -38004.16
       --------------                             --------------
         LAND SURFACE =          55405.90           LAND SURFACE =          -3487.93
            SOIL ZONE =         183196.96              SOIL ZONE =         -13175.58
     UNSATURATED ZONE =        4927209.78       UNSATURATED ZONE =         -26929.51
       SATURATED ZONE =       -1.2726D+07         SATURATED ZONE =           5588.86

 OVERALL BUDGET ERROR =        -100875.97           BUDGET ERROR =             25.92


  PERCENT DISCREPANCY =             -0.02    PERCENT DISCREPANCY =              0.07



1
 SUMMARY VOLUMETRIC BUDGET FOR GSFLOW 
 DATE: 08 06 1996              CUMULATIVE TIME STEP:    5789
 MODFLOW STRESS PERIOD      2     CURRENT TIME STEP:    5789     ITERATIONS:      15

 -----------------------------------------------------------------------------------

   CUMULATIVE VOLUMES               L**3   RATES FOR THIS TIME STEP           L**3/T
   ------------------                      ------------------------

                                     IN                                         IN
                                     --                                         --
        PRECIPITATION =        4.6511D+08          PRECIPITATION =                  
           STREAMFLOW =                               STREAMFLOW =                  
     GW BOUNDARY FLOW =                         GW BOUNDARY FLOW =                  


                                    OUT                                        OUT
                                    ---                                        ---
   EVAPOTRANSPIRATION =        2.8423D+08     EVAPOTRANSPIRATION =          21522.33
           STREAMFLOW =        1.8499D+08             STREAMFLOW =           6656.11
     GW BOUNDARY FLOW =        3745467.85       GW BOUNDARY FLOW =            650.38

   INFLOWS - OUTFLOWS =       -7859009.02     INFLOWS - OUTFLOWS =         -28828.81
             --------                                   --------

 TOTAL STORAGE CHANGE =       -7758239.93         STORAGE CHANGE =         -28838.73
       --------------                             --------------
         LAND SURFACE =          37062.04           LAND SURFACE =          -2253.66
            SOIL ZONE =         151301.32              SOIL ZONE =          -5568.84
     UNSATURATED ZONE =        4742111.11       UNSATURATED ZONE =         -26037.81
       SATURATED ZONE =       -1.2689D+07         SATURATED ZONE =           5021.58

 OVERALL BUDGET ERROR =        -100769.08           BUDGET ERROR =              9.91


  PERCENT DISCREPANCY =             -0.02    PERCENT DISCREPANCY =              0.03



1
 SUMMARY VOLUMETRIC BUDGET FOR GSFLOW 
 DATE: 08 13 1996              CUMULATIVE TIME STEP:    5796
 MODFLOW STRESS PERIOD      2     CURRENT TIME STEP:    5796     ITERATIONS:      14

 -----------------------------------------------------------------------------------

   CUMULATIVE VOLUMES               L**3   RATES FOR THIS TIME STEP           L**3/T
   ------------------                      ------------------------

                                     IN                                         IN
                                     --                                         --
        PRECIPITATION =        4.6531D+08          PRECIPITATION =          54454.08
           STREAMFLOW =                               STREAMFLOW =                  
     GW BOUNDARY FLOW =                         GW BOUNDARY FLOW =                  


                                    OUT                                        OUT
                                    ---                                        ---
   EVAPOTRANSPIRATION =        2.8441D+08     EVAPOTRANSPIRATION =          31778.04
           STREAMFLOW =        1.8504D+08             STREAMFLOW =           7867.75
     GW BOUNDARY FLOW =        3750020.04       GW BOUNDARY FLOW =            650.33

   INFLOWS - OUTFLOWS =       -7886136.97     INFLOWS - OUTFLOWS =          14157.96
             --------                                   --------

 TOTAL STORAGE CHANGE =       -7785455.98         STORAGE CHANGE =          14134.77
       --------------                             --------------
         LAND SURFACE =          53162.52           LAND SURFACE =          -2312.39
            SOIL ZONE =         253633.15              SOIL ZONE =          37078.29
     UNSATURATED ZONE =        4566244.10       UNSATURATED ZONE =         -24482.55
       SATURATED ZONE =       -1.2658D+07         SATURATED ZONE =           3851.42

 OVERALL BUDGET ERROR =        -100680.99           BUDGET ERROR =             23.20


  PERCENT DISCREPANCY =             -0.02    PERCENT DISCREPANCY =              0.04



1
 SUMMARY VOLUMETRIC BUDGET FOR GSFLOW 
 DATE: 08 20 1996              CUMULATIVE TIME STEP:    5803
 MODFLOW STRESS PERIOD      2     CURRENT TIME STEP:    5803     ITERATIONS:      14

 -----------------------------------------------------------------------------------

   CUMULATIVE VOLUMES               L**3   RATES FOR THIS TIME STEP           L**3/T
   ------------------                      ------------------------

                                     IN                                         IN
                                     --                                         --
        PRECIPITATION =        4.6531D+08          PRECIPITATION =                  
           STREAMFLOW =                               STREAMFLOW =                  
     GW BOUNDARY FLOW =                         GW BOUNDARY FLOW =                  


                                    OUT                                        OUT
                                    ---                                        ---
   EVAPOTRANSPIRATION =        2.8461D+08     EVAPOTRANSPIRATION =          17559.43
           STREAMFLOW =        1.8509D+08             STREAMFLOW =           6458.30
     GW BOUNDARY FLOW =        3754570.72       GW BOUNDARY FLOW =            649.92

   INFLOWS - OUTFLOWS =       -8135241.40     INFLOWS - OUTFLOWS =         -24667.64
             --------                                   --------

 TOTAL STORAGE CHANGE =       -8034685.84         STORAGE CHANGE =         -24677.61
       --------------                             --------------
         LAND SURFACE =           6921.38           LAND SURFACE =          -1297.31
            SOIL ZONE =         194826.38              SOIL ZONE =          -2899.99
     UNSATURATED ZONE =        4399356.11       UNSATURATED ZONE =         -23308.36
       SATURATED ZONE =       -1.2636D+07         SATURATED ZONE =           2828.06

 OVERALL BUDGET ERROR =        -100555.55           BUDGET ERROR =              9.96


  PERCENT DISCREPANCY =             -0.02    PERCENT DISCREPANCY =              0.04



1
 SUMMARY VOLUMETRIC BUDGET FOR GSFLOW 
 DATE: 08 27 1996              CUMULATIVE TIME STEP:    5810
 MODFLOW STRESS PERIOD      2     CURRENT TIME STEP:    5810     ITERATIONS:      12

 -----------------------------------------------------------------------------------

   CUMULATIVE VOLUMES               L**3   RATES FOR THIS TIME STEP           L**3/T
   ------------------                      ------------------------

                                     IN                                         IN
                                     --                                         --
        PRECIPITATION =        4.6531D+08          PRECIPITATION =                  
           STREAMFLOW =                               STREAMFLOW =                  
     GW BOUNDARY FLOW =                         GW BOUNDARY FLOW =                  


                                    OUT                                        OUT
                                    ---                                        ---
   EVAPOTRANSPIRATION =        2.8475D+08     EVAPOTRANSPIRATION =          15675.53
           STREAMFLOW =        1.8513D+08             STREAMFLOW =           6296.89
     GW BOUNDARY FLOW =        3759118.66       GW BOUNDARY FLOW =            649.54

   INFLOWS - OUTFLOWS =       -8324521.75     INFLOWS - OUTFLOWS =         -22621.96
             --------                                   --------

 TOTAL STORAGE CHANGE =       -8224108.89         STORAGE CHANGE =         -22651.43
       --------------                             --------------
         LAND SURFACE =           1243.96           LAND SURFACE =           -271.65
            SOIL ZONE =         153509.80              SOIL ZONE =          -2128.35
     UNSATURATED ZONE =        4240075.72       UNSATURATED ZONE =         -22213.82
       SATURATED ZONE =       -1.2619D+07         SATURATED ZONE =           1962.39

 OVERALL BUDGET ERROR =        -100412.86           BUDGET ERROR =             29.48


  PERCENT DISCREPANCY =             -0.02    PERCENT DISCREPANCY =              0.13



1
 SUMMARY VOLUMETRIC BUDGET FOR GSFLOW 
 DATE: 09 03 1996              CUMULATIVE TIME STEP:    5817
 MODFLOW STRESS PERIOD      2     CURRENT TIME STEP:    5817     ITERATIONS:      12

 -----------------------------------------------------------------------------------

   CUMULATIVE VOLUMES               L**3   RATES FOR THIS TIME STEP           L**3/T
   ------------------                      ------------------------

                                     IN                                         IN
                                     --                                         --
        PRECIPITATION =        4.6531D+08          PRECIPITATION =                  
           STREAMFLOW =                               STREAMFLOW =                  
     GW BOUNDARY FLOW =                         GW BOUNDARY FLOW =                  


                                    OUT                                        OUT
                                    ---                                        ---
   EVAPOTRANSPIRATION =        2.8485D+08     EVAPOTRANSPIRATION =          12599.13
           STREAMFLOW =        1.8517D+08             STREAMFLOW =           6192.53
     GW BOUNDARY FLOW =        3763663.84       GW BOUNDARY FLOW =            649.14

   INFLOWS - OUTFLOWS =       -8479401.47     INFLOWS - OUTFLOWS =         -19440.80
             --------                                   --------

 TOTAL STORAGE CHANGE =       -8379147.89         STORAGE CHANGE =         -19475.31
       --------------                             --------------
         LAND SURFACE =            583.76           LAND SURFACE =            -75.05
            SOIL ZONE =         139914.49              SOIL ZONE =            626.01
     UNSATURATED ZONE =        4085490.42       UNSATURATED ZONE =         -22039.10
       SATURATED ZONE =       -1.2605D+07         SATURATED ZONE =           2012.82

 OVERALL BUDGET ERROR =        -100253.59           BUDGET ERROR =             34.52


  PERCENT DISCREPANCY =             -0.02    PERCENT DISCREPANCY =              0.18



1
 SUMMARY VOLUMETRIC BUDGET FOR GSFLOW 
 DATE: 09 10 1996              CUMULATIVE TIME STEP:    5824
 MODFLOW STRESS PERIOD      2     CURRENT TIME STEP:    5824     ITERATIONS:      12

 -----------------------------------------------------------------------------------

   CUMULATIVE VOLUMES               L**3   RATES FOR THIS TIME STEP           L**3/T
   ------------------                      ------------------------

                                     IN                                         IN
                                     --                                         --
        PRECIPITATION =        4.6531D+08          PRECIPITATION =                  
           STREAMFLOW =                               STREAMFLOW =                  
     GW BOUNDARY FLOW =                         GW BOUNDARY FLOW =                  


                                    OUT                                        OUT
                                    ---                                        ---
   EVAPOTRANSPIRATION =        2.8494D+08     EVAPOTRANSPIRATION =          13596.42
           STREAMFLOW =        1.8522D+08             STREAMFLOW =           6100.27
     GW BOUNDARY FLOW =        3768206.27       GW BOUNDARY FLOW =            648.75

   INFLOWS - OUTFLOWS =       -8612084.82     INFLOWS - OUTFLOWS =         -20345.43
             --------                                   --------

 TOTAL STORAGE CHANGE =       -8512024.03         STORAGE CHANGE =         -20369.20
       --------------                             --------------
         LAND SURFACE =            141.35           LAND SURFACE =            -69.28
            SOIL ZONE =         146740.84              SOIL ZONE =           -502.23
     UNSATURATED ZONE =        3936103.72       UNSATURATED ZONE =         -20891.88
       SATURATED ZONE =       -1.2595D+07         SATURATED ZONE =           1094.20

 OVERALL BUDGET ERROR =        -100060.79           BUDGET ERROR =             23.77


  PERCENT DISCREPANCY =             -0.02    PERCENT DISCREPANCY =              0.12



1
 SUMMARY VOLUMETRIC BUDGET FOR GSFLOW 
 DATE: 09 17 1996              CUMULATIVE TIME STEP:    5831
 MODFLOW STRESS PERIOD      2     CURRENT TIME STEP:    5831     ITERATIONS:      12

 -----------------------------------------------------------------------------------

   CUMULATIVE VOLUMES               L**3   RATES FOR THIS TIME STEP           L**3/T
   ------------------                      ------------------------

                                     IN                                         IN
                                     --                                         --
        PRECIPITATION =        4.6637D+08          PRECIPITATION =                  
           STREAMFLOW =                               STREAMFLOW =                  
     GW BOUNDARY FLOW =                         GW BOUNDARY FLOW =                  


                                    OUT                                        OUT
                                    ---                                        ---
   EVAPOTRANSPIRATION =        2.8512D+08     EVAPOTRANSPIRATION =          58054.02
           STREAMFLOW =        1.8528D+08             STREAMFLOW =          10270.65
     GW BOUNDARY FLOW =        3772747.88       GW BOUNDARY FLOW =            649.14

   INFLOWS - OUTFLOWS =       -7806540.74     INFLOWS - OUTFLOWS =         -68973.81
             --------                                   --------

 TOTAL STORAGE CHANGE =       -7706767.43         STORAGE CHANGE =         -69001.74
       --------------                             --------------
         LAND SURFACE =           3348.24           LAND SURFACE =         -35098.95
            SOIL ZONE =        1084538.87              SOIL ZONE =         -14314.90
     UNSATURATED ZONE =        3794427.05       UNSATURATED ZONE =         -19848.69
       SATURATED ZONE =       -1.2589D+07         SATURATED ZONE =            260.80

 OVERALL BUDGET ERROR =         -99773.31           BUDGET ERROR =             27.93


  PERCENT DISCREPANCY =             -0.02    PERCENT DISCREPANCY =              0.04



1
 SUMMARY VOLUMETRIC BUDGET FOR GSFLOW 
 DATE: 09 24 1996              CUMULATIVE TIME STEP:    5838
 MODFLOW STRESS PERIOD      2     CURRENT TIME STEP:    5838     ITERATIONS:      16

 -----------------------------------------------------------------------------------

   CUMULATIVE VOLUMES               L**3   RATES FOR THIS TIME STEP           L**3/T
   ------------------                      ------------------------

                                     IN                                         IN
                                     --                                         --
        PRECIPITATION =        4.6637D+08          PRECIPITATION =                  
           STREAMFLOW =                               STREAMFLOW =                  
     GW BOUNDARY FLOW =                         GW BOUNDARY FLOW =                  


                                    OUT                                        OUT
                                    ---                                        ---
   EVAPOTRANSPIRATION =        2.8559D+08     EVAPOTRANSPIRATION =          54349.03
           STREAMFLOW =        1.8534D+08             STREAMFLOW =           6704.35
     GW BOUNDARY FLOW =        3777287.89       GW BOUNDARY FLOW =            648.23

   INFLOWS - OUTFLOWS =       -8337830.39     INFLOWS - OUTFLOWS =         -61701.61
             --------                                   --------

 TOTAL STORAGE CHANGE =       -8238229.44         STORAGE CHANGE =         -61708.53
       --------------                             --------------
         LAND SURFACE =                             LAND SURFACE =                  
            SOIL ZONE =         692801.62              SOIL ZONE =         -42321.13
     UNSATURATED ZONE =        3658097.43       UNSATURATED ZONE =         -19205.82
       SATURATED ZONE =       -1.2589D+07         SATURATED ZONE =           -181.58

 OVERALL BUDGET ERROR =         -99600.95           BUDGET ERROR =              6.93


  PERCENT DISCREPANCY =             -0.02    PERCENT DISCREPANCY =              0.01



 Number of time steps:   5844;  Number of non-convergence:   0
 MF iterations:         64664;  SZ iterations:           64595
 Average MF iterations: 11.07;  Average SZ iterations:   11.05
 Maximum MF iterations:    34;  Maximum SZ iterations:      25

mxsziter reached: 15

MF iteration distribution:      0    0    0   39  348  432  813  545  371  430
                              482  390  352  400  316  179  113  126  118  166
                              109   69   24    5    2    1    2    2    3    3
                                0    2    1    1    0    0    0    0    0    0
                                0    0    0    0    0    0    0    0    0    0
                                0    0    0    0    0    0    0    0    0    0
                                0    0    0    0    0    0    0    0    0    0
                                0    0    0    0    0    0    0    0    0    0

SZ computation distribution:    0    0    0   39  348  432  813  545  371  430
                              482  390  352  400  316  179  113  126  118  166
                              109   69   24    5   17    0    0    0    0    0
                                0    0    0    0    0    0    0    0    0    0
                                0    0    0    0    0    0    0    0    0    0
                                0    0    0    0    0    0    0    0    0    0
                                0    0    0    0    0    0    0    0    0    0
                                0    0    0    0    0    0    0    0    0    0

