1
 SUMMARY VOLUMETRIC BUDGET FOR GSFLOW 
 DATE: 10 07 1980              CUMULATIVE TIME STEP:       7
 MODFLOW STRESS PERIOD      2     CURRENT TIME STEP:       7     ITERATIONS:       6

 -----------------------------------------------------------------------------------

   CUMULATIVE VOLUMES               L**3   RATES FOR THIS TIME STEP           L**3/T
   ------------------                      ------------------------

                                     IN                                         IN
                                     --                                         --
        PRECIPITATION =                            PRECIPITATION =                  
           STREAMFLOW =                               STREAMFLOW =                  
     GW BOUNDARY FLOW =                         GW BOUNDARY FLOW =                  


                                    OUT                                        OUT
                                    ---                                        ---
   EVAPOTRANSPIRATION =          63501.87     EVAPOTRANSPIRATION =           9679.38
           STREAMFLOW =          42957.63             STREAMFLOW =           6065.77
     GW BOUNDARY FLOW =           4541.44       GW BOUNDARY FLOW =            648.70

   INFLOWS - OUTFLOWS =        -111000.94     INFLOWS - OUTFLOWS =         -16393.85
             --------                                   --------

 TOTAL STORAGE CHANGE =        -110545.15         STORAGE CHANGE =         -16325.53
       --------------                             --------------
         LAND SURFACE =                             LAND SURFACE =                  
            SOIL ZONE =          47015.18              SOIL ZONE =           6017.04
     UNSATURATED ZONE =        -144777.37       UNSATURATED ZONE =         -20360.11
       SATURATED ZONE =         -12782.96         SATURATED ZONE =          -1982.46

 OVERALL BUDGET ERROR =           -455.78           BUDGET ERROR =            -68.32


  PERCENT DISCREPANCY =             -0.41    PERCENT DISCREPANCY =             -0.42



1
 SUMMARY VOLUMETRIC BUDGET FOR GSFLOW 
 DATE: 10 14 1980              CUMULATIVE TIME STEP:      14
 MODFLOW STRESS PERIOD      2     CURRENT TIME STEP:      14     ITERATIONS:       6

 -----------------------------------------------------------------------------------

   CUMULATIVE VOLUMES               L**3   RATES FOR THIS TIME STEP           L**3/T
   ------------------                      ------------------------

                                     IN                                         IN
                                     --                                         --
        PRECIPITATION =         650779.83          PRECIPITATION =         164754.40
           STREAMFLOW =                               STREAMFLOW =                  
     GW BOUNDARY FLOW =                         GW BOUNDARY FLOW =                  


                                    OUT                                        OUT
                                    ---                                        ---
   EVAPOTRANSPIRATION =         147658.87     EVAPOTRANSPIRATION =           7975.53
           STREAMFLOW =          92677.70             STREAMFLOW =           7494.65
     GW BOUNDARY FLOW =           9082.78       GW BOUNDARY FLOW =            648.89

   INFLOWS - OUTFLOWS =         401360.49     INFLOWS - OUTFLOWS =         148635.32
             --------                                   --------

 TOTAL STORAGE CHANGE =         402331.01         STORAGE CHANGE =         148709.32
       --------------                             --------------
         LAND SURFACE =         277689.24           LAND SURFACE =         136623.45
            SOIL ZONE =         436768.61              SOIL ZONE =          34103.72
     UNSATURATED ZONE =        -284452.37       UNSATURATED ZONE =         -19623.49
       SATURATED ZONE =         -27674.48         SATURATED ZONE =          -2394.36

 OVERALL BUDGET ERROR =           -970.52           BUDGET ERROR =            -73.99


  PERCENT DISCREPANCY =             -0.15    PERCENT DISCREPANCY =             -0.04



1
 SUMMARY VOLUMETRIC BUDGET FOR GSFLOW 
 DATE: 10 21 1980              CUMULATIVE TIME STEP:      21
 MODFLOW STRESS PERIOD      2     CURRENT TIME STEP:      21     ITERATIONS:       6

 -----------------------------------------------------------------------------------

   CUMULATIVE VOLUMES               L**3   RATES FOR THIS TIME STEP           L**3/T
   ------------------                      ------------------------

                                     IN                                         IN
                                     --                                         --
        PRECIPITATION =         733157.03          PRECIPITATION =                  
           STREAMFLOW =                               STREAMFLOW =                  
     GW BOUNDARY FLOW =                         GW BOUNDARY FLOW =                  


                                    OUT                                        OUT
                                    ---                                        ---
   EVAPOTRANSPIRATION =         376396.56     EVAPOTRANSPIRATION =          37107.61
           STREAMFLOW =         144889.98             STREAMFLOW =           7105.83
     GW BOUNDARY FLOW =          13624.56       GW BOUNDARY FLOW =            648.77

   INFLOWS - OUTFLOWS =         198245.93     INFLOWS - OUTFLOWS =         -44862.21
             --------                                   --------

 TOTAL STORAGE CHANGE =         199726.04         STORAGE CHANGE =         -44781.47
       --------------                             --------------
         LAND SURFACE =           2250.88           LAND SURFACE =          -3153.72
            SOIL ZONE =         662442.73              SOIL ZONE =         -19836.14
     UNSATURATED ZONE =        -418622.05       UNSATURATED ZONE =         -18801.05
       SATURATED ZONE =         -46345.52         SATURATED ZONE =          -2990.56

 OVERALL BUDGET ERROR =          -1480.11           BUDGET ERROR =            -80.74


  PERCENT DISCREPANCY =             -0.20    PERCENT DISCREPANCY =             -0.18



1
 SUMMARY VOLUMETRIC BUDGET FOR GSFLOW 
 DATE: 10 28 1980              CUMULATIVE TIME STEP:      28
 MODFLOW STRESS PERIOD      2     CURRENT TIME STEP:      28     ITERATIONS:       6

 -----------------------------------------------------------------------------------

   CUMULATIVE VOLUMES               L**3   RATES FOR THIS TIME STEP           L**3/T
   ------------------                      ------------------------

                                     IN                                         IN
                                     --                                         --
        PRECIPITATION =        1070903.53          PRECIPITATION =                  
           STREAMFLOW =                               STREAMFLOW =                  
     GW BOUNDARY FLOW =                         GW BOUNDARY FLOW =                  


                                    OUT                                        OUT
                                    ---                                        ---
   EVAPOTRANSPIRATION =         557223.07     EVAPOTRANSPIRATION =          23594.60
           STREAMFLOW =         199833.46             STREAMFLOW =           7989.29
     GW BOUNDARY FLOW =          18165.91       GW BOUNDARY FLOW =            648.81

   INFLOWS - OUTFLOWS =         295681.08     INFLOWS - OUTFLOWS =         -32232.70
             --------                                   --------

 TOTAL STORAGE CHANGE =         297732.56         STORAGE CHANGE =         -32146.02
       --------------                             --------------
         LAND SURFACE =          24619.51           LAND SURFACE =         -30948.99
            SOIL ZONE =         889255.97              SOIL ZONE =          20270.79
     UNSATURATED ZONE =        -547225.20       UNSATURATED ZONE =         -17994.12
       SATURATED ZONE =         -68917.73         SATURATED ZONE =          -3473.70

 OVERALL BUDGET ERROR =          -2051.48           BUDGET ERROR =            -86.68


  PERCENT DISCREPANCY =             -0.19    PERCENT DISCREPANCY =             -0.27



1
 SUMMARY VOLUMETRIC BUDGET FOR GSFLOW 
 DATE: 11 04 1980              CUMULATIVE TIME STEP:      35
 MODFLOW STRESS PERIOD      2     CURRENT TIME STEP:      35     ITERATIONS:       8

 -----------------------------------------------------------------------------------

   CUMULATIVE VOLUMES               L**3   RATES FOR THIS TIME STEP           L**3/T
   ------------------                      ------------------------

                                     IN                                         IN
                                     --                                         --
        PRECIPITATION =        1070903.53          PRECIPITATION =                  
           STREAMFLOW =                               STREAMFLOW =                  
     GW BOUNDARY FLOW =                         GW BOUNDARY FLOW =                  


                                    OUT                                        OUT
                                    ---                                        ---
   EVAPOTRANSPIRATION =         854957.72     EVAPOTRANSPIRATION =          38438.28
           STREAMFLOW =         252301.16             STREAMFLOW =           7018.29
     GW BOUNDARY FLOW =          22706.92       GW BOUNDARY FLOW =            648.64

   INFLOWS - OUTFLOWS =         -59062.27     INFLOWS - OUTFLOWS =         -46105.21
             --------                                   --------

 TOTAL STORAGE CHANGE =         -56520.03         STORAGE CHANGE =         -46043.02
       --------------                             --------------
         LAND SURFACE =                             LAND SURFACE =                  
            SOIL ZONE =         710236.92              SOIL ZONE =         -24517.20
     UNSATURATED ZONE =        -670653.09       UNSATURATED ZONE =         -17361.18
       SATURATED ZONE =         -96103.86         SATURATED ZONE =          -4164.65

 OVERALL BUDGET ERROR =          -2542.24           BUDGET ERROR =            -62.19


  PERCENT DISCREPANCY =             -0.23    PERCENT DISCREPANCY =             -0.13



1
 SUMMARY VOLUMETRIC BUDGET FOR GSFLOW 
 DATE: 11 11 1980              CUMULATIVE TIME STEP:      42
 MODFLOW STRESS PERIOD      2     CURRENT TIME STEP:      42     ITERATIONS:       7

 -----------------------------------------------------------------------------------

   CUMULATIVE VOLUMES               L**3   RATES FOR THIS TIME STEP           L**3/T
   ------------------                      ------------------------

                                     IN                                         IN
                                     --                                         --
        PRECIPITATION =        1573762.54          PRECIPITATION =         255182.19
           STREAMFLOW =                               STREAMFLOW =                  
     GW BOUNDARY FLOW =                         GW BOUNDARY FLOW =                  


                                    OUT                                        OUT
                                    ---                                        ---
   EVAPOTRANSPIRATION =        1066452.17     EVAPOTRANSPIRATION =          14943.52
           STREAMFLOW =         308269.30             STREAMFLOW =          10769.61
     GW BOUNDARY FLOW =          27247.64       GW BOUNDARY FLOW =            648.84

   INFLOWS - OUTFLOWS =         171793.44     INFLOWS - OUTFLOWS =         228820.21
             --------                                   --------

 TOTAL STORAGE CHANGE =         174881.38         STORAGE CHANGE =         228885.12
       --------------                             --------------
         LAND SURFACE =          78612.95           LAND SURFACE =          76659.87
            SOIL ZONE =        1011575.16              SOIL ZONE =         172849.18
     UNSATURATED ZONE =        -789255.17       UNSATURATED ZONE =         -16535.08
       SATURATED ZONE =        -126051.56         SATURATED ZONE =          -4088.85

 OVERALL BUDGET ERROR =          -3087.94           BUDGET ERROR =            -64.90


  PERCENT DISCREPANCY =             -0.20    PERCENT DISCREPANCY =             -0.03



1
 SUMMARY VOLUMETRIC BUDGET FOR GSFLOW 
 DATE: 11 18 1980              CUMULATIVE TIME STEP:      49
 MODFLOW STRESS PERIOD      2     CURRENT TIME STEP:      49     ITERATIONS:       6

 -----------------------------------------------------------------------------------

   CUMULATIVE VOLUMES               L**3   RATES FOR THIS TIME STEP           L**3/T
   ------------------                      ------------------------

                                     IN                                         IN
                                     --                                         --
        PRECIPITATION =        1573762.54          PRECIPITATION =                  
           STREAMFLOW =                               STREAMFLOW =                  
     GW BOUNDARY FLOW =                         GW BOUNDARY FLOW =                  


                                    OUT                                        OUT
                                    ---                                        ---
   EVAPOTRANSPIRATION =        1154887.59     EVAPOTRANSPIRATION =          16641.07
           STREAMFLOW =         371174.59             STREAMFLOW =           9356.94
     GW BOUNDARY FLOW =          31789.52       GW BOUNDARY FLOW =            648.86

   INFLOWS - OUTFLOWS =          15910.85     INFLOWS - OUTFLOWS =         -26646.86
             --------                                   --------

 TOTAL STORAGE CHANGE =          19631.79         STORAGE CHANGE =         -26546.99
       --------------                             --------------
         LAND SURFACE =           8654.86           LAND SURFACE =          -6203.23
            SOIL ZONE =        1072829.94              SOIL ZONE =            475.71
     UNSATURATED ZONE =        -903178.43       UNSATURATED ZONE =         -16032.05
       SATURATED ZONE =        -158674.57         SATURATED ZONE =          -4787.42

 OVERALL BUDGET ERROR =          -3720.94           BUDGET ERROR =            -99.87


  PERCENT DISCREPANCY =             -0.24    PERCENT DISCREPANCY =             -0.38



1
 SUMMARY VOLUMETRIC BUDGET FOR GSFLOW 
 DATE: 11 25 1980              CUMULATIVE TIME STEP:      56
 MODFLOW STRESS PERIOD      2     CURRENT TIME STEP:      56     ITERATIONS:       8

 -----------------------------------------------------------------------------------

   CUMULATIVE VOLUMES               L**3   RATES FOR THIS TIME STEP           L**3/T
   ------------------                      ------------------------

                                     IN                                         IN
                                     --                                         --
        PRECIPITATION =        1648816.13          PRECIPITATION =                  
           STREAMFLOW =                               STREAMFLOW =                  
     GW BOUNDARY FLOW =                         GW BOUNDARY FLOW =                  


                                    OUT                                        OUT
                                    ---                                        ---
   EVAPOTRANSPIRATION =        1230201.85     EVAPOTRANSPIRATION =           8792.74
           STREAMFLOW =         438357.50             STREAMFLOW =           9949.47
     GW BOUNDARY FLOW =          36331.80       GW BOUNDARY FLOW =            648.93

   INFLOWS - OUTFLOWS =         -56075.02     INFLOWS - OUTFLOWS =         -19391.15
             --------                                   --------

 TOTAL STORAGE CHANGE =         -51801.97         STORAGE CHANGE =         -19327.06
       --------------                             --------------
         LAND SURFACE =          55166.83           LAND SURFACE =          -8744.58
            SOIL ZONE =        1100547.54              SOIL ZONE =          10160.27
     UNSATURATED ZONE =       -1012811.68       UNSATURATED ZONE =         -15404.75
       SATURATED ZONE =        -194704.65         SATURATED ZONE =          -5338.00

 OVERALL BUDGET ERROR =          -4273.06           BUDGET ERROR =            -64.09


  PERCENT DISCREPANCY =             -0.25    PERCENT DISCREPANCY =             -0.33



1
 SUMMARY VOLUMETRIC BUDGET FOR GSFLOW 
 DATE: 12 02 1980              CUMULATIVE TIME STEP:      63
 MODFLOW STRESS PERIOD      2     CURRENT TIME STEP:      63     ITERATIONS:       8

 -----------------------------------------------------------------------------------

   CUMULATIVE VOLUMES               L**3   RATES FOR THIS TIME STEP           L**3/T
   ------------------                      ------------------------

                                     IN                                         IN
                                     --                                         --
        PRECIPITATION =        2076621.55          PRECIPITATION =                  
           STREAMFLOW =                               STREAMFLOW =                  
     GW BOUNDARY FLOW =                         GW BOUNDARY FLOW =                  


                                    OUT                                        OUT
                                    ---                                        ---
   EVAPOTRANSPIRATION =        1423644.38     EVAPOTRANSPIRATION =          34189.30
           STREAMFLOW =         523308.04             STREAMFLOW =          15236.04
     GW BOUNDARY FLOW =          40875.74       GW BOUNDARY FLOW =            649.44

   INFLOWS - OUTFLOWS =          88793.39     INFLOWS - OUTFLOWS =         -50074.77
             --------                                   --------

 TOTAL STORAGE CHANGE =          93497.69         STORAGE CHANGE =         -50018.71
       --------------                             --------------
         LAND SURFACE =         152551.10           LAND SURFACE =         -75205.42
            SOIL ZONE =        1286014.23              SOIL ZONE =          42855.13
     UNSATURATED ZONE =       -1114355.05       UNSATURATED ZONE =         -13042.87
       SATURATED ZONE =        -230712.59         SATURATED ZONE =          -4625.55

 OVERALL BUDGET ERROR =          -4704.30           BUDGET ERROR =            -56.07


  PERCENT DISCREPANCY =             -0.23    PERCENT DISCREPANCY =             -0.11



1
 SUMMARY VOLUMETRIC BUDGET FOR GSFLOW 
 DATE: 12 09 1980              CUMULATIVE TIME STEP:      70
 MODFLOW STRESS PERIOD      2     CURRENT TIME STEP:      70     ITERATIONS:       8

 -----------------------------------------------------------------------------------

   CUMULATIVE VOLUMES               L**3   RATES FOR THIS TIME STEP           L**3/T
   ------------------                      ------------------------

                                     IN                                         IN
                                     --                                         --
        PRECIPITATION =        4284363.63          PRECIPITATION =                  
           STREAMFLOW =                               STREAMFLOW =                  
     GW BOUNDARY FLOW =                         GW BOUNDARY FLOW =                  


                                    OUT                                        OUT
                                    ---                                        ---
   EVAPOTRANSPIRATION =        1447062.75     EVAPOTRANSPIRATION =           2942.43
           STREAMFLOW =         622578.85             STREAMFLOW =          14460.07
     GW BOUNDARY FLOW =          45422.60       GW BOUNDARY FLOW =            649.64

   INFLOWS - OUTFLOWS =        2169299.43     INFLOWS - OUTFLOWS =         -18052.15
             --------                                   --------

 TOTAL STORAGE CHANGE =        2174477.98         STORAGE CHANGE =         -18003.63
       --------------                             --------------
         LAND SURFACE =        2335216.87           LAND SURFACE =          -2942.43
            SOIL ZONE =        1321845.99              SOIL ZONE =           5168.76
     UNSATURATED ZONE =       -1212718.31       UNSATURATED ZONE =         -14219.28
       SATURATED ZONE =        -269866.58         SATURATED ZONE =          -6010.68

 OVERALL BUDGET ERROR =          -5178.55           BUDGET ERROR =            -48.52


  PERCENT DISCREPANCY =             -0.12    PERCENT DISCREPANCY =             -0.27



1
 SUMMARY VOLUMETRIC BUDGET FOR GSFLOW 
 DATE: 12 16 1980              CUMULATIVE TIME STEP:      77
 MODFLOW STRESS PERIOD      2     CURRENT TIME STEP:      77     ITERATIONS:       7

 -----------------------------------------------------------------------------------

   CUMULATIVE VOLUMES               L**3   RATES FOR THIS TIME STEP           L**3/T
   ------------------                      ------------------------

                                     IN                                         IN
                                     --                                         --
        PRECIPITATION =        4284363.63          PRECIPITATION =                  
           STREAMFLOW =                               STREAMFLOW =                  
     GW BOUNDARY FLOW =                         GW BOUNDARY FLOW =                  


                                    OUT                                        OUT
                                    ---                                        ---
   EVAPOTRANSPIRATION =        1589062.09     EVAPOTRANSPIRATION =          33888.80
           STREAMFLOW =         742123.19             STREAMFLOW =          24744.72
     GW BOUNDARY FLOW =          49971.18       GW BOUNDARY FLOW =            650.23

   INFLOWS - OUTFLOWS =        1903207.17     INFLOWS - OUTFLOWS =         -59283.76
             --------                                   --------

 TOTAL STORAGE CHANGE =        1908813.22         STORAGE CHANGE =         -59213.38
       --------------                             --------------
         LAND SURFACE =        2023939.67           LAND SURFACE =        -129021.52
            SOIL ZONE =        1498072.29              SOIL ZONE =          83500.92
     UNSATURATED ZONE =       -1302770.92       UNSATURATED ZONE =          -9208.39
       SATURATED ZONE =        -310427.82         SATURATED ZONE =          -4484.40

 OVERALL BUDGET ERROR =          -5606.06           BUDGET ERROR =            -70.38


  PERCENT DISCREPANCY =             -0.13    PERCENT DISCREPANCY =             -0.12



1
 SUMMARY VOLUMETRIC BUDGET FOR GSFLOW 
 DATE: 12 23 1980              CUMULATIVE TIME STEP:      84
 MODFLOW STRESS PERIOD      2     CURRENT TIME STEP:      84     ITERATIONS:       9

 -----------------------------------------------------------------------------------

   CUMULATIVE VOLUMES               L**3   RATES FOR THIS TIME STEP           L**3/T
   ------------------                      ------------------------

                                     IN                                         IN
                                     --                                         --
        PRECIPITATION =        4516757.54          PRECIPITATION =                  
           STREAMFLOW =                               STREAMFLOW =                  
     GW BOUNDARY FLOW =                         GW BOUNDARY FLOW =                  


                                    OUT                                        OUT
                                    ---                                        ---
   EVAPOTRANSPIRATION =        1795115.19     EVAPOTRANSPIRATION =          35140.32
           STREAMFLOW =         968038.43             STREAMFLOW =          30092.10
     GW BOUNDARY FLOW =          54531.42       GW BOUNDARY FLOW =            651.90

   INFLOWS - OUTFLOWS =        1699072.49     INFLOWS - OUTFLOWS =         -65884.32
             --------                                   --------

 TOTAL STORAGE CHANGE =        1704991.72         STORAGE CHANGE =         -65849.76
       --------------                             --------------
         LAND SURFACE =        1433268.50           LAND SURFACE =         -48191.47
            SOIL ZONE =        1956990.60              SOIL ZONE =          -6624.45
     UNSATURATED ZONE =       -1346315.52       UNSATURATED ZONE =          -6293.64
       SATURATED ZONE =        -338951.86         SATURATED ZONE =          -4740.21

 OVERALL BUDGET ERROR =          -5919.23           BUDGET ERROR =            -34.56


  PERCENT DISCREPANCY =             -0.13    PERCENT DISCREPANCY =             -0.05



1
 SUMMARY VOLUMETRIC BUDGET FOR GSFLOW 
 DATE: 12 30 1980              CUMULATIVE TIME STEP:      91
 MODFLOW STRESS PERIOD      2     CURRENT TIME STEP:      91     ITERATIONS:       9

 -----------------------------------------------------------------------------------

   CUMULATIVE VOLUMES               L**3   RATES FOR THIS TIME STEP           L**3/T
   ------------------                      ------------------------

                                     IN                                         IN
                                     --                                         --
        PRECIPITATION =        4516757.54          PRECIPITATION =                  
           STREAMFLOW =                               STREAMFLOW =                  
     GW BOUNDARY FLOW =                         GW BOUNDARY FLOW =                  


                                    OUT                                        OUT
                                    ---                                        ---
   EVAPOTRANSPIRATION =        2155747.70     EVAPOTRANSPIRATION =          45887.78
           STREAMFLOW =        1211975.59             STREAMFLOW =          27166.33
     GW BOUNDARY FLOW =          59097.99       GW BOUNDARY FLOW =            652.35

   INFLOWS - OUTFLOWS =        1089936.26     INFLOWS - OUTFLOWS =         -73706.46
             --------                                   --------

 TOTAL STORAGE CHANGE =        1096036.93         STORAGE CHANGE =         -73683.67
       --------------                             --------------
         LAND SURFACE =         641159.81           LAND SURFACE =         -40370.18
            SOIL ZONE =        2181728.83              SOIL ZONE =         -23721.78
     UNSATURATED ZONE =       -1361627.16       UNSATURATED ZONE =          -5202.52
       SATURATED ZONE =        -365224.55         SATURATED ZONE =          -4389.19

 OVERALL BUDGET ERROR =          -6100.68           BUDGET ERROR =            -22.79


  PERCENT DISCREPANCY =             -0.13    PERCENT DISCREPANCY =             -0.03



1
 SUMMARY VOLUMETRIC BUDGET FOR GSFLOW 
 DATE: 01 06 1981              CUMULATIVE TIME STEP:      98
 MODFLOW STRESS PERIOD      2     CURRENT TIME STEP:      98     ITERATIONS:       8

 -----------------------------------------------------------------------------------

   CUMULATIVE VOLUMES               L**3   RATES FOR THIS TIME STEP           L**3/T
   ------------------                      ------------------------

                                     IN                                         IN
                                     --                                         --
        PRECIPITATION =        5004445.43          PRECIPITATION =                  
           STREAMFLOW =                               STREAMFLOW =                  
     GW BOUNDARY FLOW =                         GW BOUNDARY FLOW =                  


                                    OUT                                        OUT
                                    ---                                        ---
   EVAPOTRANSPIRATION =        2383672.45     EVAPOTRANSPIRATION =          21388.78
           STREAMFLOW =        1365823.93             STREAMFLOW =          21180.03
     GW BOUNDARY FLOW =          63659.51       GW BOUNDARY FLOW =            651.25

   INFLOWS - OUTFLOWS =        1191289.55     INFLOWS - OUTFLOWS =         -43220.06
             --------                                   --------

 TOTAL STORAGE CHANGE =        1197605.11         STORAGE CHANGE =         -43185.19
       --------------                             --------------
         LAND SURFACE =         837080.27           LAND SURFACE =         -30417.06
            SOIL ZONE =        2192499.99              SOIL ZONE =           3031.21
     UNSATURATED ZONE =       -1428737.78       UNSATURATED ZONE =         -10080.15
       SATURATED ZONE =        -403237.36         SATURATED ZONE =          -5719.18

 OVERALL BUDGET ERROR =          -6315.57           BUDGET ERROR =            -34.87


  PERCENT DISCREPANCY =             -0.13    PERCENT DISCREPANCY =             -0.08



1
 SUMMARY VOLUMETRIC BUDGET FOR GSFLOW 
 DATE: 01 13 1981              CUMULATIVE TIME STEP:     105
 MODFLOW STRESS PERIOD      2     CURRENT TIME STEP:     105     ITERATIONS:       7

 -----------------------------------------------------------------------------------

   CUMULATIVE VOLUMES               L**3   RATES FOR THIS TIME STEP           L**3/T
   ------------------                      ------------------------

                                     IN                                         IN
                                     --                                         --
        PRECIPITATION =        5004445.43          PRECIPITATION =                  
           STREAMFLOW =                               STREAMFLOW =                  
     GW BOUNDARY FLOW =                         GW BOUNDARY FLOW =                  


                                    OUT                                        OUT
                                    ---                                        ---
   EVAPOTRANSPIRATION =        2601185.10     EVAPOTRANSPIRATION =          44455.00
           STREAMFLOW =        1513579.44             STREAMFLOW =          20001.51
     GW BOUNDARY FLOW =          68216.62       GW BOUNDARY FLOW =            650.83

   INFLOWS - OUTFLOWS =         821464.28     INFLOWS - OUTFLOWS =         -65107.34
             --------                                   --------

 TOTAL STORAGE CHANGE =         828167.53         STORAGE CHANGE =         -65047.75
       --------------                             --------------
         LAND SURFACE =         626702.00           LAND SURFACE =         -38991.59
            SOIL ZONE =        2141680.00              SOIL ZONE =         -10379.32
     UNSATURATED ZONE =       -1493722.82       UNSATURATED ZONE =          -9178.64
       SATURATED ZONE =        -446491.64         SATURATED ZONE =          -6498.21

 OVERALL BUDGET ERROR =          -6703.25           BUDGET ERROR =            -59.59


  PERCENT DISCREPANCY =             -0.13    PERCENT DISCREPANCY =             -0.09



1
 SUMMARY VOLUMETRIC BUDGET FOR GSFLOW 
 DATE: 01 20 1981              CUMULATIVE TIME STEP:     112
 MODFLOW STRESS PERIOD      2     CURRENT TIME STEP:     112     ITERATIONS:       8

 -----------------------------------------------------------------------------------

   CUMULATIVE VOLUMES               L**3   RATES FOR THIS TIME STEP           L**3/T
   ------------------                      ------------------------

                                     IN                                         IN
                                     --                                         --
        PRECIPITATION =        5170466.84          PRECIPITATION =          41505.35
           STREAMFLOW =                               STREAMFLOW =                  
     GW BOUNDARY FLOW =                         GW BOUNDARY FLOW =                  


                                    OUT                                        OUT
                                    ---                                        ---
   EVAPOTRANSPIRATION =        2883458.13     EVAPOTRANSPIRATION =          35211.70
           STREAMFLOW =        1654860.49             STREAMFLOW =          20081.97
     GW BOUNDARY FLOW =          72771.39       GW BOUNDARY FLOW =            650.64

   INFLOWS - OUTFLOWS =         559376.83     INFLOWS - OUTFLOWS =         -14438.95
             --------                                   --------

 TOTAL STORAGE CHANGE =         566410.48         STORAGE CHANGE =         -14403.13
       --------------                             --------------
         LAND SURFACE =         436285.42           LAND SURFACE =           4326.68
            SOIL ZONE =        2147613.16              SOIL ZONE =         -10124.59
     UNSATURATED ZONE =       -1526437.40       UNSATURATED ZONE =          -1927.58
       SATURATED ZONE =        -491050.70         SATURATED ZONE =          -6677.64

 OVERALL BUDGET ERROR =          -7033.65           BUDGET ERROR =            -35.82


  PERCENT DISCREPANCY =             -0.14    PERCENT DISCREPANCY =             -0.06



1
 SUMMARY VOLUMETRIC BUDGET FOR GSFLOW 
 DATE: 01 27 1981              CUMULATIVE TIME STEP:     119
 MODFLOW STRESS PERIOD      2     CURRENT TIME STEP:     119     ITERATIONS:       9

 -----------------------------------------------------------------------------------

   CUMULATIVE VOLUMES               L**3   RATES FOR THIS TIME STEP           L**3/T
   ------------------                      ------------------------

                                     IN                                         IN
                                     --                                         --
        PRECIPITATION =        8646540.08          PRECIPITATION =        2936503.63
           STREAMFLOW =                               STREAMFLOW =                  
     GW BOUNDARY FLOW =                         GW BOUNDARY FLOW =                  


                                    OUT                                        OUT
                                    ---                                        ---
   EVAPOTRANSPIRATION =        3118027.08     EVAPOTRANSPIRATION =          13120.97
           STREAMFLOW =        1800243.58             STREAMFLOW =          18658.72
     GW BOUNDARY FLOW =          77325.71       GW BOUNDARY FLOW =            650.44

   INFLOWS - OUTFLOWS =        3650943.70     INFLOWS - OUTFLOWS =        2904073.51
             --------                                   --------

 TOTAL STORAGE CHANGE =        3658132.46         STORAGE CHANGE =        2904098.51
       --------------                             --------------
         LAND SURFACE =        3540180.85           LAND SURFACE =        2923352.24
            SOIL ZONE =        2170152.33              SOIL ZONE =          -7528.93
     UNSATURATED ZONE =       -1515771.12       UNSATURATED ZONE =          -4807.50
       SATURATED ZONE =        -536429.59         SATURATED ZONE =          -6917.30

 OVERALL BUDGET ERROR =          -7188.76           BUDGET ERROR =            -25.01


  PERCENT DISCREPANCY =             -0.08    PERCENT DISCREPANCY =             -0.00



1
 SUMMARY VOLUMETRIC BUDGET FOR GSFLOW 
 DATE: 02 03 1981              CUMULATIVE TIME STEP:     126
 MODFLOW STRESS PERIOD      2     CURRENT TIME STEP:     126     ITERATIONS:       9

 -----------------------------------------------------------------------------------

   CUMULATIVE VOLUMES               L**3   RATES FOR THIS TIME STEP           L**3/T
   ------------------                      ------------------------

                                     IN                                         IN
                                     --                                         --
        PRECIPITATION =        1.1739D+07          PRECIPITATION =                  
           STREAMFLOW =                               STREAMFLOW =                  
     GW BOUNDARY FLOW =                         GW BOUNDARY FLOW =                  


                                    OUT                                        OUT
                                    ---                                        ---
   EVAPOTRANSPIRATION =        3154540.12     EVAPOTRANSPIRATION =           6975.48
           STREAMFLOW =        1926772.86             STREAMFLOW =          17968.20
     GW BOUNDARY FLOW =          81877.80       GW BOUNDARY FLOW =            650.25

   INFLOWS - OUTFLOWS =        6575497.98     INFLOWS - OUTFLOWS =         -25593.93
             --------                                   --------

 TOTAL STORAGE CHANGE =        6582920.53         STORAGE CHANGE =         -25567.27
       --------------                             --------------
         LAND SURFACE =        6595816.50           LAND SURFACE =          -6975.48
            SOIL ZONE =        2159029.80              SOIL ZONE =            484.49
     UNSATURATED ZONE =       -1583651.85       UNSATURATED ZONE =         -11360.53
       SATURATED ZONE =        -588273.93         SATURATED ZONE =          -7715.74

 OVERALL BUDGET ERROR =          -7422.54           BUDGET ERROR =            -26.66


  PERCENT DISCREPANCY =             -0.06    PERCENT DISCREPANCY =             -0.10



1
 SUMMARY VOLUMETRIC BUDGET FOR GSFLOW 
 DATE: 02 10 1981              CUMULATIVE TIME STEP:     133
 MODFLOW STRESS PERIOD      2     CURRENT TIME STEP:     133     ITERATIONS:       7

 -----------------------------------------------------------------------------------

   CUMULATIVE VOLUMES               L**3   RATES FOR THIS TIME STEP           L**3/T
   ------------------                      ------------------------

                                     IN                                         IN
                                     --                                         --
        PRECIPITATION =        1.1838D+07          PRECIPITATION =                  
           STREAMFLOW =                               STREAMFLOW =                  
     GW BOUNDARY FLOW =                         GW BOUNDARY FLOW =                  


                                    OUT                                        OUT
                                    ---                                        ---
   EVAPOTRANSPIRATION =        3279941.19     EVAPOTRANSPIRATION =          32880.06
           STREAMFLOW =        2052818.63             STREAMFLOW =          18033.59
     GW BOUNDARY FLOW =          86429.54       GW BOUNDARY FLOW =            650.24

   INFLOWS - OUTFLOWS =        6419063.91     INFLOWS - OUTFLOWS =         -51563.88
             --------                                   --------

 TOTAL STORAGE CHANGE =        6426754.22         STORAGE CHANGE =         -51490.68
       --------------                             --------------
         LAND SURFACE =        6569979.95           LAND SURFACE =         -32880.06
            SOIL ZONE =        2163256.97              SOIL ZONE =            586.04
     UNSATURATED ZONE =       -1661833.32       UNSATURATED ZONE =         -10834.43
       SATURATED ZONE =        -644649.37         SATURATED ZONE =          -8362.23

 OVERALL BUDGET ERROR =          -7690.31           BUDGET ERROR =            -73.20


  PERCENT DISCREPANCY =             -0.06    PERCENT DISCREPANCY =             -0.14



1
 SUMMARY VOLUMETRIC BUDGET FOR GSFLOW 
 DATE: 02 17 1981              CUMULATIVE TIME STEP:     140
 MODFLOW STRESS PERIOD      2     CURRENT TIME STEP:     140     ITERATIONS:      14

 -----------------------------------------------------------------------------------

   CUMULATIVE VOLUMES               L**3   RATES FOR THIS TIME STEP           L**3/T
   ------------------                      ------------------------

                                     IN                                         IN
                                     --                                         --
        PRECIPITATION =        1.2765D+07          PRECIPITATION =          68929.28
           STREAMFLOW =                               STREAMFLOW =                  
     GW BOUNDARY FLOW =                         GW BOUNDARY FLOW =                  


                                    OUT                                        OUT
                                    ---                                        ---
   EVAPOTRANSPIRATION =        3618038.98     EVAPOTRANSPIRATION =          68607.56
           STREAMFLOW =        2593988.36             STREAMFLOW =         124795.59
     GW BOUNDARY FLOW =          91003.32       GW BOUNDARY FLOW =            656.82

   INFLOWS - OUTFLOWS =        6461938.45     INFLOWS - OUTFLOWS =        -125130.69
             --------                                   --------

 TOTAL STORAGE CHANGE =        6469904.82         STORAGE CHANGE =        -125118.38
       --------------                             --------------
         LAND SURFACE =        5590061.11           LAND SURFACE =        -278671.93
            SOIL ZONE =        2957465.73              SOIL ZONE =          72146.96
     UNSATURATED ZONE =       -1416563.59       UNSATURATED ZONE =          78967.07
       SATURATED ZONE =        -661058.44         SATURATED ZONE =           2439.53

 OVERALL BUDGET ERROR =          -7966.37           BUDGET ERROR =            -12.32


  PERCENT DISCREPANCY =             -0.06    PERCENT DISCREPANCY =             -0.01



1
 SUMMARY VOLUMETRIC BUDGET FOR GSFLOW 
 DATE: 02 24 1981              CUMULATIVE TIME STEP:     147
 MODFLOW STRESS PERIOD      2     CURRENT TIME STEP:     147     ITERATIONS:      14

 -----------------------------------------------------------------------------------

   CUMULATIVE VOLUMES               L**3   RATES FOR THIS TIME STEP           L**3/T
   ------------------                      ------------------------

                                     IN                                         IN
                                     --                                         --
        PRECIPITATION =        1.3179D+07          PRECIPITATION =         344646.37
           STREAMFLOW =                               STREAMFLOW =                  
     GW BOUNDARY FLOW =                         GW BOUNDARY FLOW =                  


                                    OUT                                        OUT
                                    ---                                        ---
   EVAPOTRANSPIRATION =        3959360.57     EVAPOTRANSPIRATION =          18832.76
           STREAMFLOW =        3151282.90             STREAMFLOW =          52010.86
     GW BOUNDARY FLOW =          95596.36       GW BOUNDARY FLOW =            655.14

   INFLOWS - OUTFLOWS =        5972304.92     INFLOWS - OUTFLOWS =         273147.61
             --------                                   --------

 TOTAL STORAGE CHANGE =        5980238.04         STORAGE CHANGE =         273148.82
       --------------                             --------------
         LAND SURFACE =        4984244.21           LAND SURFACE =         286368.61
            SOIL ZONE =        2697055.33              SOIL ZONE =         -43259.43
     UNSATURATED ZONE =       -1063483.71       UNSATURATED ZONE =          27624.69
       SATURATED ZONE =        -637577.79         SATURATED ZONE =           2414.95

 OVERALL BUDGET ERROR =          -7933.12           BUDGET ERROR =             -1.20


  PERCENT DISCREPANCY =             -0.06    PERCENT DISCREPANCY =             -0.00



1
 SUMMARY VOLUMETRIC BUDGET FOR GSFLOW 
 DATE: 03 03 1981              CUMULATIVE TIME STEP:     154
 MODFLOW STRESS PERIOD      2     CURRENT TIME STEP:     154     ITERATIONS:      11

 -----------------------------------------------------------------------------------

   CUMULATIVE VOLUMES               L**3   RATES FOR THIS TIME STEP           L**3/T
   ------------------                      ------------------------

                                     IN                                         IN
                                     --                                         --
        PRECIPITATION =        1.3447D+07          PRECIPITATION =                  
           STREAMFLOW =                               STREAMFLOW =                  
     GW BOUNDARY FLOW =                         GW BOUNDARY FLOW =                  


                                    OUT                                        OUT
                                    ---                                        ---
   EVAPOTRANSPIRATION =        4120043.30     EVAPOTRANSPIRATION =          45353.75
           STREAMFLOW =        3375067.49             STREAMFLOW =          27755.58
     GW BOUNDARY FLOW =         100169.25       GW BOUNDARY FLOW =            652.32

   INFLOWS - OUTFLOWS =        5851323.00     INFLOWS - OUTFLOWS =         -73761.65
             --------                                   --------

 TOTAL STORAGE CHANGE =        5859146.62         STORAGE CHANGE =         -73780.55
       --------------                             --------------
         LAND SURFACE =        5068137.31           LAND SURFACE =         -66041.98
            SOIL ZONE =        2489341.09              SOIL ZONE =           2843.65
     UNSATURATED ZONE =       -1055838.26       UNSATURATED ZONE =          -8515.65
       SATURATED ZONE =        -642493.51         SATURATED ZONE =          -2066.57

 OVERALL BUDGET ERROR =          -7823.62           BUDGET ERROR =             18.91


  PERCENT DISCREPANCY =             -0.06    PERCENT DISCREPANCY =              0.03



1
 SUMMARY VOLUMETRIC BUDGET FOR GSFLOW 
 DATE: 03 10 1981              CUMULATIVE TIME STEP:     161
 MODFLOW STRESS PERIOD      2     CURRENT TIME STEP:     161     ITERATIONS:      10

 -----------------------------------------------------------------------------------

   CUMULATIVE VOLUMES               L**3   RATES FOR THIS TIME STEP           L**3/T
   ------------------                      ------------------------

                                     IN                                         IN
                                     --                                         --
        PRECIPITATION =        1.3493D+07          PRECIPITATION =                  
           STREAMFLOW =                               STREAMFLOW =                  
     GW BOUNDARY FLOW =                         GW BOUNDARY FLOW =                  


                                    OUT                                        OUT
                                    ---                                        ---
   EVAPOTRANSPIRATION =        4465832.88     EVAPOTRANSPIRATION =          72811.00
           STREAMFLOW =        3610951.80             STREAMFLOW =          43640.62
     GW BOUNDARY FLOW =         104735.29       GW BOUNDARY FLOW =            652.93

   INFLOWS - OUTFLOWS =        5311421.18     INFLOWS - OUTFLOWS =        -117104.56
             --------                                   --------

 TOTAL STORAGE CHANGE =        5319174.61         STORAGE CHANGE =        -117113.23
       --------------                             --------------
         LAND SURFACE =        4391652.97           LAND SURFACE =        -169089.79
            SOIL ZONE =        2603391.73              SOIL ZONE =          28907.12
     UNSATURATED ZONE =       -1021447.92       UNSATURATED ZONE =          23464.83
       SATURATED ZONE =        -654422.17         SATURATED ZONE =           -395.40

 OVERALL BUDGET ERROR =          -7753.43           BUDGET ERROR =              8.68


  PERCENT DISCREPANCY =             -0.06    PERCENT DISCREPANCY =              0.01



1
 SUMMARY VOLUMETRIC BUDGET FOR GSFLOW 
 DATE: 03 17 1981              CUMULATIVE TIME STEP:     168
 MODFLOW STRESS PERIOD      2     CURRENT TIME STEP:     168     ITERATIONS:       9

 -----------------------------------------------------------------------------------

   CUMULATIVE VOLUMES               L**3   RATES FOR THIS TIME STEP           L**3/T
   ------------------                      ------------------------

                                     IN                                         IN
                                     --                                         --
        PRECIPITATION =        1.3744D+07          PRECIPITATION =                  
           STREAMFLOW =                               STREAMFLOW =                  
     GW BOUNDARY FLOW =                         GW BOUNDARY FLOW =                  


                                    OUT                                        OUT
                                    ---                                        ---
   EVAPOTRANSPIRATION =        4834242.64     EVAPOTRANSPIRATION =          40234.36
           STREAMFLOW =        3837911.51             STREAMFLOW =          24123.64
     GW BOUNDARY FLOW =         109302.55       GW BOUNDARY FLOW =            651.87

   INFLOWS - OUTFLOWS =        4963034.18     INFLOWS - OUTFLOWS =         -65009.88
             --------                                   --------

 TOTAL STORAGE CHANGE =        4970693.73         STORAGE CHANGE =         -65018.44
       --------------                             --------------
         LAND SURFACE =        4202420.68           LAND SURFACE =         -39897.13
            SOIL ZONE =        2437967.35              SOIL ZONE =          -5416.38
     UNSATURATED ZONE =        -999401.43       UNSATURATED ZONE =         -15649.77
       SATURATED ZONE =        -670292.87         SATURATED ZONE =          -4055.15

 OVERALL BUDGET ERROR =          -7659.54           BUDGET ERROR =              8.56


  PERCENT DISCREPANCY =             -0.06    PERCENT DISCREPANCY =              0.01



1
 SUMMARY VOLUMETRIC BUDGET FOR GSFLOW 
 DATE: 03 24 1981              CUMULATIVE TIME STEP:     175
 MODFLOW STRESS PERIOD      2     CURRENT TIME STEP:     175     ITERATIONS:       9

 -----------------------------------------------------------------------------------

   CUMULATIVE VOLUMES               L**3   RATES FOR THIS TIME STEP           L**3/T
   ------------------                      ------------------------

                                     IN                                         IN
                                     --                                         --
        PRECIPITATION =        1.4367D+07          PRECIPITATION =                  
           STREAMFLOW =                               STREAMFLOW =                  
     GW BOUNDARY FLOW =                         GW BOUNDARY FLOW =                  


                                    OUT                                        OUT
                                    ---                                        ---
   EVAPOTRANSPIRATION =        5190019.97     EVAPOTRANSPIRATION =          87428.11
           STREAMFLOW =        4013557.45             STREAMFLOW =          26791.94
     GW BOUNDARY FLOW =         113862.97       GW BOUNDARY FLOW =            651.45

   INFLOWS - OUTFLOWS =        5049305.12     INFLOWS - OUTFLOWS =        -114871.49
             --------                                   --------

 TOTAL STORAGE CHANGE =        5056988.88         STORAGE CHANGE =        -114872.66
       --------------                             --------------
         LAND SURFACE =        4477696.12           LAND SURFACE =         -65035.10
            SOIL ZONE =        2350761.90              SOIL ZONE =         -41060.98
     UNSATURATED ZONE =       -1068617.97       UNSATURATED ZONE =          -3965.74
       SATURATED ZONE =        -702851.18         SATURATED ZONE =          -4810.84

 OVERALL BUDGET ERROR =          -7683.76           BUDGET ERROR =              1.17


  PERCENT DISCREPANCY =             -0.05    PERCENT DISCREPANCY =              0.00



1
 SUMMARY VOLUMETRIC BUDGET FOR GSFLOW 
 DATE: 03 31 1981              CUMULATIVE TIME STEP:     182
 MODFLOW STRESS PERIOD      2     CURRENT TIME STEP:     182     ITERATIONS:      12

 -----------------------------------------------------------------------------------

   CUMULATIVE VOLUMES               L**3   RATES FOR THIS TIME STEP           L**3/T
   ------------------                      ------------------------

                                     IN                                         IN
                                     --                                         --
        PRECIPITATION =        1.5777D+07          PRECIPITATION =                  
           STREAMFLOW =                               STREAMFLOW =                  
     GW BOUNDARY FLOW =                         GW BOUNDARY FLOW =                  


                                    OUT                                        OUT
                                    ---                                        ---
   EVAPOTRANSPIRATION =        5619957.36     EVAPOTRANSPIRATION =          54090.27
           STREAMFLOW =        4522341.79             STREAMFLOW =          37103.96
     GW BOUNDARY FLOW =         118444.98       GW BOUNDARY FLOW =            653.60

   INFLOWS - OUTFLOWS =        5516003.85     INFLOWS - OUTFLOWS =         -91847.83
             --------                                   --------

 TOTAL STORAGE CHANGE =        5523624.63         STORAGE CHANGE =         -91860.45
       --------------                             --------------
         LAND SURFACE =        4494242.72           LAND SURFACE =         -55488.75
            SOIL ZONE =        2547235.49              SOIL ZONE =         -41751.80
     UNSATURATED ZONE =        -823297.18       UNSATURATED ZONE =           5945.41
       SATURATED ZONE =        -694556.41         SATURATED ZONE =           -565.31

 OVERALL BUDGET ERROR =          -7620.77           BUDGET ERROR =             12.63


  PERCENT DISCREPANCY =             -0.05    PERCENT DISCREPANCY =              0.01



1
 SUMMARY VOLUMETRIC BUDGET FOR GSFLOW 
 DATE: 04 07 1981              CUMULATIVE TIME STEP:     189
 MODFLOW STRESS PERIOD      2     CURRENT TIME STEP:     189     ITERATIONS:      10

 -----------------------------------------------------------------------------------

   CUMULATIVE VOLUMES               L**3   RATES FOR THIS TIME STEP           L**3/T
   ------------------                      ------------------------

                                     IN                                         IN
                                     --                                         --
        PRECIPITATION =        1.6121D+07          PRECIPITATION =                  
           STREAMFLOW =                               STREAMFLOW =                  
     GW BOUNDARY FLOW =                         GW BOUNDARY FLOW =                  


                                    OUT                                        OUT
                                    ---                                        ---
   EVAPOTRANSPIRATION =        6246023.60     EVAPOTRANSPIRATION =         103845.38
           STREAMFLOW =        4840627.57             STREAMFLOW =          43396.02
     GW BOUNDARY FLOW =         123020.28       GW BOUNDARY FLOW =            653.73

   INFLOWS - OUTFLOWS =        4911796.15     INFLOWS - OUTFLOWS =        -147895.13
             --------                                   --------

 TOTAL STORAGE CHANGE =        4919278.37         STORAGE CHANGE =        -147920.99
       --------------                             --------------
         LAND SURFACE =        3870170.36           LAND SURFACE =        -138668.80
            SOIL ZONE =        2478555.87              SOIL ZONE =         -20336.67
     UNSATURATED ZONE =        -738869.99       UNSATURATED ZONE =          10761.52
       SATURATED ZONE =        -690577.87         SATURATED ZONE =            322.96

 OVERALL BUDGET ERROR =          -7482.22           BUDGET ERROR =             25.86


  PERCENT DISCREPANCY =             -0.05    PERCENT DISCREPANCY =              0.02



1
 SUMMARY VOLUMETRIC BUDGET FOR GSFLOW 
 DATE: 04 14 1981              CUMULATIVE TIME STEP:     196
 MODFLOW STRESS PERIOD      2     CURRENT TIME STEP:     196     ITERATIONS:      13

 -----------------------------------------------------------------------------------

   CUMULATIVE VOLUMES               L**3   RATES FOR THIS TIME STEP           L**3/T
   ------------------                      ------------------------

                                     IN                                         IN
                                     --                                         --
        PRECIPITATION =        1.6121D+07          PRECIPITATION =                  
           STREAMFLOW =                               STREAMFLOW =                  
     GW BOUNDARY FLOW =                         GW BOUNDARY FLOW =                  


                                    OUT                                        OUT
                                    ---                                        ---
   EVAPOTRANSPIRATION =        7156713.13     EVAPOTRANSPIRATION =         191911.71
           STREAMFLOW =        5167758.61             STREAMFLOW =          55462.53
     GW BOUNDARY FLOW =         127595.66       GW BOUNDARY FLOW =            653.68

   INFLOWS - OUTFLOWS =        3669400.22     INFLOWS - OUTFLOWS =        -248027.92
             --------                                   --------

 TOTAL STORAGE CHANGE =        3676775.07         STORAGE CHANGE =        -248033.96
       --------------                             --------------
         LAND SURFACE =        2621455.97           LAND SURFACE =        -253007.68
            SOIL ZONE =        2386983.22              SOIL ZONE =         -16793.07
     UNSATURATED ZONE =        -647794.19       UNSATURATED ZONE =          19711.18
       SATURATED ZONE =        -683869.93         SATURATED ZONE =           2055.61

 OVERALL BUDGET ERROR =          -7374.85           BUDGET ERROR =              6.04


  PERCENT DISCREPANCY =             -0.05    PERCENT DISCREPANCY =              0.00



1
 SUMMARY VOLUMETRIC BUDGET FOR GSFLOW 
 DATE: 04 21 1981              CUMULATIVE TIME STEP:     203
 MODFLOW STRESS PERIOD      2     CURRENT TIME STEP:     203     ITERATIONS:      12

 -----------------------------------------------------------------------------------

   CUMULATIVE VOLUMES               L**3   RATES FOR THIS TIME STEP           L**3/T
   ------------------                      ------------------------

                                     IN                                         IN
                                     --                                         --
        PRECIPITATION =        1.6310D+07          PRECIPITATION =                  
           STREAMFLOW =                               STREAMFLOW =                  
     GW BOUNDARY FLOW =                         GW BOUNDARY FLOW =                  


                                    OUT                                        OUT
                                    ---                                        ---
   EVAPOTRANSPIRATION =        8228675.36     EVAPOTRANSPIRATION =         152246.56
           STREAMFLOW =        5506935.75             STREAMFLOW =          45782.51
     GW BOUNDARY FLOW =         132167.10       GW BOUNDARY FLOW =            652.63

   INFLOWS - OUTFLOWS =        2442464.44     INFLOWS - OUTFLOWS =        -198681.70
             --------                                   --------

 TOTAL STORAGE CHANGE =        2449720.76         STORAGE CHANGE =        -198709.38
       --------------                             --------------
         LAND SURFACE =        1440926.25           LAND SURFACE =        -121359.42
            SOIL ZONE =        2205131.67              SOIL ZONE =         -97194.12
     UNSATURATED ZONE =        -529428.96       UNSATURATED ZONE =          16975.70
       SATURATED ZONE =        -666908.19         SATURATED ZONE =           2868.47

 OVERALL BUDGET ERROR =          -7256.32           BUDGET ERROR =             27.68


  PERCENT DISCREPANCY =             -0.04    PERCENT DISCREPANCY =              0.01



1
 SUMMARY VOLUMETRIC BUDGET FOR GSFLOW 
 DATE: 04 28 1981              CUMULATIVE TIME STEP:     210
 MODFLOW STRESS PERIOD      2     CURRENT TIME STEP:     210     ITERATIONS:      14

 -----------------------------------------------------------------------------------

   CUMULATIVE VOLUMES               L**3   RATES FOR THIS TIME STEP           L**3/T
   ------------------                      ------------------------

                                     IN                                         IN
                                     --                                         --
        PRECIPITATION =        1.6515D+07          PRECIPITATION =                  
           STREAMFLOW =                               STREAMFLOW =                  
     GW BOUNDARY FLOW =                         GW BOUNDARY FLOW =                  


                                    OUT                                        OUT
                                    ---                                        ---
   EVAPOTRANSPIRATION =        9467139.59     EVAPOTRANSPIRATION =         200395.24
           STREAMFLOW =        5719014.46             STREAMFLOW =          24666.58
     GW BOUNDARY FLOW =         136726.59       GW BOUNDARY FLOW =            650.47

   INFLOWS - OUTFLOWS =        1192552.24     INFLOWS - OUTFLOWS =        -225712.29
             --------                                   --------

 TOTAL STORAGE CHANGE =        1199697.76         STORAGE CHANGE =        -225728.34
       --------------                             --------------
         LAND SURFACE =         691530.95           LAND SURFACE =         -83509.90
            SOIL ZONE =        1694929.20              SOIL ZONE =        -138423.30
     UNSATURATED ZONE =        -527345.53       UNSATURATED ZONE =          -4064.75
       SATURATED ZONE =        -659416.86         SATURATED ZONE =            269.61

 OVERALL BUDGET ERROR =          -7145.52           BUDGET ERROR =             16.05


  PERCENT DISCREPANCY =             -0.04    PERCENT DISCREPANCY =              0.01



1
 SUMMARY VOLUMETRIC BUDGET FOR GSFLOW 
 DATE: 05 05 1981              CUMULATIVE TIME STEP:     217
 MODFLOW STRESS PERIOD      2     CURRENT TIME STEP:     217     ITERATIONS:      13

 -----------------------------------------------------------------------------------

   CUMULATIVE VOLUMES               L**3   RATES FOR THIS TIME STEP           L**3/T
   ------------------                      ------------------------

                                     IN                                         IN
                                     --                                         --
        PRECIPITATION =        1.6515D+07          PRECIPITATION =                  
           STREAMFLOW =                               STREAMFLOW =                  
     GW BOUNDARY FLOW =                         GW BOUNDARY FLOW =                  


                                    OUT                                        OUT
                                    ---                                        ---
   EVAPOTRANSPIRATION =        1.0318D+07     EVAPOTRANSPIRATION =          47812.20
           STREAMFLOW =        5824912.87             STREAMFLOW =          10857.18
     GW BOUNDARY FLOW =         141272.99       GW BOUNDARY FLOW =            648.80

   INFLOWS - OUTFLOWS =         231359.68     INFLOWS - OUTFLOWS =         -59318.19
             --------                                   --------

 TOTAL STORAGE CHANGE =         238445.82         STORAGE CHANGE =         -59316.41
       --------------                             --------------
         LAND SURFACE =         347350.76           LAND SURFACE =         -17502.06
            SOIL ZONE =        1187014.01              SOIL ZONE =         -23041.62
     UNSATURATED ZONE =        -623343.53       UNSATURATED ZONE =         -15749.08
       SATURATED ZONE =        -672575.42         SATURATED ZONE =          -3023.65

 OVERALL BUDGET ERROR =          -7086.14           BUDGET ERROR =             -1.78


  PERCENT DISCREPANCY =             -0.04    PERCENT DISCREPANCY =             -0.00



1
 SUMMARY VOLUMETRIC BUDGET FOR GSFLOW 
 DATE: 05 12 1981              CUMULATIVE TIME STEP:     224
 MODFLOW STRESS PERIOD      2     CURRENT TIME STEP:     224     ITERATIONS:      18

 -----------------------------------------------------------------------------------

   CUMULATIVE VOLUMES               L**3   RATES FOR THIS TIME STEP           L**3/T
   ------------------                      ------------------------

                                     IN                                         IN
                                     --                                         --
        PRECIPITATION =        1.6515D+07          PRECIPITATION =                  
           STREAMFLOW =                               STREAMFLOW =                  
     GW BOUNDARY FLOW =                         GW BOUNDARY FLOW =                  


                                    OUT                                        OUT
                                    ---                                        ---
   EVAPOTRANSPIRATION =        1.0809D+07     EVAPOTRANSPIRATION =          90794.75
           STREAMFLOW =        5895970.07             STREAMFLOW =          10476.89
     GW BOUNDARY FLOW =         145811.67       GW BOUNDARY FLOW =            648.22

   INFLOWS - OUTFLOWS =        -335299.17     INFLOWS - OUTFLOWS =        -101919.85
             --------                                   --------

 TOTAL STORAGE CHANGE =        -328212.67         STORAGE CHANGE =        -101916.47
       --------------                             --------------
         LAND SURFACE =         198678.97           LAND SURFACE =         -25500.84
            SOIL ZONE =         903440.72              SOIL ZONE =         -57625.99
     UNSATURATED ZONE =        -728115.31       UNSATURATED ZONE =         -13418.93
       SATURATED ZONE =        -702217.05         SATURATED ZONE =          -5370.71

 OVERALL BUDGET ERROR =          -7086.50           BUDGET ERROR =             -3.38


  PERCENT DISCREPANCY =             -0.04    PERCENT DISCREPANCY =             -0.00



1
 SUMMARY VOLUMETRIC BUDGET FOR GSFLOW 
 DATE: 05 19 1981              CUMULATIVE TIME STEP:     231
 MODFLOW STRESS PERIOD      2     CURRENT TIME STEP:     231     ITERATIONS:      17

 -----------------------------------------------------------------------------------

   CUMULATIVE VOLUMES               L**3   RATES FOR THIS TIME STEP           L**3/T
   ------------------                      ------------------------

                                     IN                                         IN
                                     --                                         --
        PRECIPITATION =        1.7837D+07          PRECIPITATION =         169045.43
           STREAMFLOW =                               STREAMFLOW =                  
     GW BOUNDARY FLOW =                         GW BOUNDARY FLOW =                  


                                    OUT                                        OUT
                                    ---                                        ---
   EVAPOTRANSPIRATION =        1.1152D+07     EVAPOTRANSPIRATION =          32129.65
           STREAMFLOW =        6026994.79             STREAMFLOW =          27330.82
     GW BOUNDARY FLOW =         150351.18       GW BOUNDARY FLOW =            649.57

   INFLOWS - OUTFLOWS =         507427.35     INFLOWS - OUTFLOWS =         108935.38
             --------                                   --------

 TOTAL STORAGE CHANGE =         514517.99         STORAGE CHANGE =         108933.78
       --------------                             --------------
         LAND SURFACE =         167097.84           LAND SURFACE =           4534.24
            SOIL ZONE =        1884125.14              SOIL ZONE =         110167.14
     UNSATURATED ZONE =        -795569.18       UNSATURATED ZONE =           -525.82
       SATURATED ZONE =        -741135.81         SATURATED ZONE =          -5241.79

 OVERALL BUDGET ERROR =          -7090.64           BUDGET ERROR =              1.60


  PERCENT DISCREPANCY =             -0.04    PERCENT DISCREPANCY =              0.00



1
 SUMMARY VOLUMETRIC BUDGET FOR GSFLOW 
 DATE: 05 26 1981              CUMULATIVE TIME STEP:     238
 MODFLOW STRESS PERIOD      2     CURRENT TIME STEP:     238     ITERATIONS:      13

 -----------------------------------------------------------------------------------

   CUMULATIVE VOLUMES               L**3   RATES FOR THIS TIME STEP           L**3/T
   ------------------                      ------------------------

                                     IN                                         IN
                                     --                                         --
        PRECIPITATION =        1.8252D+07          PRECIPITATION =         284303.67
           STREAMFLOW =                               STREAMFLOW =                  
     GW BOUNDARY FLOW =                         GW BOUNDARY FLOW =                  


                                    OUT                                        OUT
                                    ---                                        ---
   EVAPOTRANSPIRATION =        1.1981D+07     EVAPOTRANSPIRATION =         133987.99
           STREAMFLOW =        6140417.47             STREAMFLOW =          19479.14
     GW BOUNDARY FLOW =         154892.64       GW BOUNDARY FLOW =            648.54

   INFLOWS - OUTFLOWS =         -23994.51     INFLOWS - OUTFLOWS =         130188.01
             --------                                   --------

 TOTAL STORAGE CHANGE =         -16896.03         STORAGE CHANGE =         130196.53
       --------------                             --------------
         LAND SURFACE =          96880.50           LAND SURFACE =          -7049.94
            SOIL ZONE =        1526851.47              SOIL ZONE =         154554.46
     UNSATURATED ZONE =        -852200.60       UNSATURATED ZONE =         -10635.44
       SATURATED ZONE =        -788427.41         SATURATED ZONE =          -6672.55

 OVERALL BUDGET ERROR =          -7098.48           BUDGET ERROR =             -8.52


  PERCENT DISCREPANCY =             -0.04    PERCENT DISCREPANCY =             -0.00



1
 SUMMARY VOLUMETRIC BUDGET FOR GSFLOW 
 DATE: 06 02 1981              CUMULATIVE TIME STEP:     245
 MODFLOW STRESS PERIOD      2     CURRENT TIME STEP:     245     ITERATIONS:      14

 -----------------------------------------------------------------------------------

   CUMULATIVE VOLUMES               L**3   RATES FOR THIS TIME STEP           L**3/T
   ------------------                      ------------------------

                                     IN                                         IN
                                     --                                         --
        PRECIPITATION =        1.8318D+07          PRECIPITATION =          50869.96
           STREAMFLOW =                               STREAMFLOW =                  
     GW BOUNDARY FLOW =                         GW BOUNDARY FLOW =                  


                                    OUT                                        OUT
                                    ---                                        ---
   EVAPOTRANSPIRATION =        1.2776D+07     EVAPOTRANSPIRATION =          68974.06
           STREAMFLOW =        6211151.30             STREAMFLOW =           7782.37
     GW BOUNDARY FLOW =         159427.97       GW BOUNDARY FLOW =            647.45

   INFLOWS - OUTFLOWS =        -828703.90     INFLOWS - OUTFLOWS =         -26533.93
             --------                                   --------

 TOTAL STORAGE CHANGE =        -821600.05         STORAGE CHANGE =         -26539.28
       --------------                             --------------
         LAND SURFACE =          61812.20           LAND SURFACE =          30830.75
            SOIL ZONE =         901587.54              SOIL ZONE =         -35337.21
     UNSATURATED ZONE =        -939542.89       UNSATURATED ZONE =         -13582.37
       SATURATED ZONE =        -845456.90         SATURATED ZONE =          -8450.45

 OVERALL BUDGET ERROR =          -7103.85           BUDGET ERROR =              5.36


  PERCENT DISCREPANCY =             -0.04    PERCENT DISCREPANCY =              0.01



1
 SUMMARY VOLUMETRIC BUDGET FOR GSFLOW 
 DATE: 06 09 1981              CUMULATIVE TIME STEP:     252
 MODFLOW STRESS PERIOD      2     CURRENT TIME STEP:     252     ITERATIONS:      13

 -----------------------------------------------------------------------------------

   CUMULATIVE VOLUMES               L**3   RATES FOR THIS TIME STEP           L**3/T
   ------------------                      ------------------------

                                     IN                                         IN
                                     --                                         --
        PRECIPITATION =        1.8318D+07          PRECIPITATION =                  
           STREAMFLOW =                               STREAMFLOW =                  
     GW BOUNDARY FLOW =                         GW BOUNDARY FLOW =                  


                                    OUT                                        OUT
                                    ---                                        ---
   EVAPOTRANSPIRATION =        1.3269D+07     EVAPOTRANSPIRATION =          51443.30
           STREAMFLOW =        6258970.79             STREAMFLOW =           6425.23
     GW BOUNDARY FLOW =         163957.91       GW BOUNDARY FLOW =            646.96

   INFLOWS - OUTFLOWS =       -1373949.84     INFLOWS - OUTFLOWS =         -58515.49
             --------                                   --------

 TOTAL STORAGE CHANGE =       -1366808.22         STORAGE CHANGE =         -58516.12
       --------------                             --------------
         LAND SURFACE =           8252.08           LAND SURFACE =          -1595.17
            SOIL ZONE =         565110.49              SOIL ZONE =         -34710.63
     UNSATURATED ZONE =       -1032946.93       UNSATURATED ZONE =         -13195.34
       SATURATED ZONE =        -907223.87         SATURATED ZONE =          -9014.97

 OVERALL BUDGET ERROR =          -7141.61           BUDGET ERROR =              0.62


  PERCENT DISCREPANCY =             -0.04    PERCENT DISCREPANCY =              0.00



1
 SUMMARY VOLUMETRIC BUDGET FOR GSFLOW 
 DATE: 06 16 1981              CUMULATIVE TIME STEP:     259
 MODFLOW STRESS PERIOD      2     CURRENT TIME STEP:     259     ITERATIONS:      17

 -----------------------------------------------------------------------------------

   CUMULATIVE VOLUMES               L**3   RATES FOR THIS TIME STEP           L**3/T
   ------------------                      ------------------------

                                     IN                                         IN
                                     --                                         --
        PRECIPITATION =        1.8318D+07          PRECIPITATION =                  
           STREAMFLOW =                               STREAMFLOW =                  
     GW BOUNDARY FLOW =                         GW BOUNDARY FLOW =                  


                                    OUT                                        OUT
                                    ---                                        ---
   EVAPOTRANSPIRATION =        1.3461D+07     EVAPOTRANSPIRATION =          45201.75
           STREAMFLOW =        6302652.53             STREAMFLOW =           6169.97
     GW BOUNDARY FLOW =         168485.71       GW BOUNDARY FLOW =            646.75

   INFLOWS - OUTFLOWS =       -1613454.13     INFLOWS - OUTFLOWS =         -52018.47
             --------                                   --------

 TOTAL STORAGE CHANGE =       -1606289.65         STORAGE CHANGE =         -52019.66
       --------------                             --------------
         LAND SURFACE =           3425.60           LAND SURFACE =           -943.52
            SOIL ZONE =         484622.17              SOIL ZONE =         -29185.61
     UNSATURATED ZONE =       -1122923.22       UNSATURATED ZONE =         -12612.29
       SATURATED ZONE =        -971414.20         SATURATED ZONE =          -9278.24

 OVERALL BUDGET ERROR =          -7164.48           BUDGET ERROR =              1.19


  PERCENT DISCREPANCY =             -0.04    PERCENT DISCREPANCY =              0.00



1
 SUMMARY VOLUMETRIC BUDGET FOR GSFLOW 
 DATE: 06 23 1981              CUMULATIVE TIME STEP:     266
 MODFLOW STRESS PERIOD      2     CURRENT TIME STEP:     266     ITERATIONS:      14

 -----------------------------------------------------------------------------------

   CUMULATIVE VOLUMES               L**3   RATES FOR THIS TIME STEP           L**3/T
   ------------------                      ------------------------

                                     IN                                         IN
                                     --                                         --
        PRECIPITATION =        1.8318D+07          PRECIPITATION =                  
           STREAMFLOW =                               STREAMFLOW =                  
     GW BOUNDARY FLOW =                         GW BOUNDARY FLOW =                  


                                    OUT                                        OUT
                                    ---                                        ---
   EVAPOTRANSPIRATION =        1.3758D+07     EVAPOTRANSPIRATION =          34785.78
           STREAMFLOW =        6344785.93             STREAMFLOW =           5940.95
     GW BOUNDARY FLOW =         173012.23       GW BOUNDARY FLOW =            646.57

   INFLOWS - OUTFLOWS =       -1957921.06     INFLOWS - OUTFLOWS =         -41373.30
             --------                                   --------

 TOTAL STORAGE CHANGE =       -1950731.04         STORAGE CHANGE =         -41363.52
       --------------                             --------------
         LAND SURFACE =                             LAND SURFACE =                  
            SOIL ZONE =         295633.52              SOIL ZONE =         -19770.76
     UNSATURATED ZONE =       -1208415.34       UNSATURATED ZONE =         -11794.43
       SATURATED ZONE =       -1037949.22         SATURATED ZONE =          -9798.33

 OVERALL BUDGET ERROR =          -7190.02           BUDGET ERROR =             -9.78


  PERCENT DISCREPANCY =             -0.04    PERCENT DISCREPANCY =             -0.02



1
 SUMMARY VOLUMETRIC BUDGET FOR GSFLOW 
 DATE: 06 30 1981              CUMULATIVE TIME STEP:     273
 MODFLOW STRESS PERIOD      2     CURRENT TIME STEP:     273     ITERATIONS:       9

 -----------------------------------------------------------------------------------

   CUMULATIVE VOLUMES               L**3   RATES FOR THIS TIME STEP           L**3/T
   ------------------                      ------------------------

                                     IN                                         IN
[...]
   ------------------                      ------------------------

                                     IN                                         IN
                                     --                                         --
        PRECIPITATION =        4.6511D+08          PRECIPITATION =                  
           STREAMFLOW =                               STREAMFLOW =                  
     GW BOUNDARY FLOW =                         GW BOUNDARY FLOW =                  


                                    OUT                                        OUT
                                    ---                                        ---
   EVAPOTRANSPIRATION =        2.8410D+08     EVAPOTRANSPIRATION =          30463.23
           STREAMFLOW =        1.8493D+08             STREAMFLOW =           6864.40
     GW BOUNDARY FLOW =        3740912.63       GW BOUNDARY FLOW =            650.45

   INFLOWS - OUTFLOWS =       -7661269.22     INFLOWS - OUTFLOWS =         -37978.09
             --------                                   --------

 TOTAL STORAGE CHANGE =       -7560379.22         STORAGE CHANGE =         -38005.11
       --------------                             --------------
         LAND SURFACE =          55405.90           LAND SURFACE =          -3487.93
            SOIL ZONE =         183197.17              SOIL ZONE =         -13175.95
     UNSATURATED ZONE =        4927542.45       UNSATURATED ZONE =         -26930.47
       SATURATED ZONE =       -1.2727D+07         SATURATED ZONE =           5589.24

 OVERALL BUDGET ERROR =        -100890.00           BUDGET ERROR =             27.03


  PERCENT DISCREPANCY =             -0.02    PERCENT DISCREPANCY =              0.07



1
 SUMMARY VOLUMETRIC BUDGET FOR GSFLOW 
 DATE: 08 06 1996              CUMULATIVE TIME STEP:    5789
 MODFLOW STRESS PERIOD      2     CURRENT TIME STEP:    5789     ITERATIONS:      15

 -----------------------------------------------------------------------------------

   CUMULATIVE VOLUMES               L**3   RATES FOR THIS TIME STEP           L**3/T
   ------------------                      ------------------------

                                     IN                                         IN
                                     --                                         --
        PRECIPITATION =        4.6511D+08          PRECIPITATION =                  
           STREAMFLOW =                               STREAMFLOW =                  
     GW BOUNDARY FLOW =                         GW BOUNDARY FLOW =                  


                                    OUT                                        OUT
                                    ---                                        ---
   EVAPOTRANSPIRATION =        2.8425D+08     EVAPOTRANSPIRATION =          21522.19
           STREAMFLOW =        1.8498D+08             STREAMFLOW =           6656.25
     GW BOUNDARY FLOW =        3745465.62       GW BOUNDARY FLOW =            650.38

   INFLOWS - OUTFLOWS =       -7859467.97     INFLOWS - OUTFLOWS =         -28828.82
             --------                                   --------

 TOTAL STORAGE CHANGE =       -7758671.95         STORAGE CHANGE =         -28836.43
       --------------                             --------------
         LAND SURFACE =          37062.04           LAND SURFACE =          -2253.66
            SOIL ZONE =         151299.57              SOIL ZONE =          -5569.07
     UNSATURATED ZONE =        4742429.85       UNSATURATED ZONE =         -26041.67
       SATURATED ZONE =       -1.2689D+07         SATURATED ZONE =           5027.97

 OVERALL BUDGET ERROR =        -100796.01           BUDGET ERROR =              7.62


  PERCENT DISCREPANCY =             -0.02    PERCENT DISCREPANCY =              0.03



1
 SUMMARY VOLUMETRIC BUDGET FOR GSFLOW 
 DATE: 08 13 1996              CUMULATIVE TIME STEP:    5796
 MODFLOW STRESS PERIOD      2     CURRENT TIME STEP:    5796     ITERATIONS:      14

 -----------------------------------------------------------------------------------

   CUMULATIVE VOLUMES               L**3   RATES FOR THIS TIME STEP           L**3/T
   ------------------                      ------------------------

                                     IN                                         IN
                                     --                                         --
        PRECIPITATION =        4.6531D+08          PRECIPITATION =          54454.08
           STREAMFLOW =                               STREAMFLOW =                  
     GW BOUNDARY FLOW =                         GW BOUNDARY FLOW =                  


                                    OUT                                        OUT
                                    ---                                        ---
   EVAPOTRANSPIRATION =        2.8442D+08     EVAPOTRANSPIRATION =          31777.88
           STREAMFLOW =        1.8503D+08             STREAMFLOW =           7867.55
     GW BOUNDARY FLOW =        3750017.81       GW BOUNDARY FLOW =            650.33

   INFLOWS - OUTFLOWS =       -7886593.56     INFLOWS - OUTFLOWS =          14158.33
             --------                                   --------

 TOTAL STORAGE CHANGE =       -7785884.44         STORAGE CHANGE =          14142.68
       --------------                             --------------
         LAND SURFACE =          53162.52           LAND SURFACE =          -2312.39
            SOIL ZONE =         253630.21              SOIL ZONE =          37078.09
     UNSATURATED ZONE =        4566560.47       UNSATURATED ZONE =         -24483.44
       SATURATED ZONE =       -1.2659D+07         SATURATED ZONE =           3860.42

 OVERALL BUDGET ERROR =        -100709.12           BUDGET ERROR =             15.65


  PERCENT DISCREPANCY =             -0.02    PERCENT DISCREPANCY =              0.03



1
 SUMMARY VOLUMETRIC BUDGET FOR GSFLOW 
 DATE: 08 20 1996              CUMULATIVE TIME STEP:    5803
 MODFLOW STRESS PERIOD      2     CURRENT TIME STEP:    5803     ITERATIONS:      14

 -----------------------------------------------------------------------------------

   CUMULATIVE VOLUMES               L**3   RATES FOR THIS TIME STEP           L**3/T
   ------------------                      ------------------------

                                     IN                                         IN
                                     --                                         --
        PRECIPITATION =        4.6531D+08          PRECIPITATION =                  
           STREAMFLOW =                               STREAMFLOW =                  
     GW BOUNDARY FLOW =                         GW BOUNDARY FLOW =                  


                                    OUT                                        OUT
                                    ---                                        ---
   EVAPOTRANSPIRATION =        2.8462D+08     EVAPOTRANSPIRATION =          17559.17
           STREAMFLOW =        1.8507D+08             STREAMFLOW =           6458.34
     GW BOUNDARY FLOW =        3754568.48       GW BOUNDARY FLOW =            649.92

   INFLOWS - OUTFLOWS =       -8135695.68     INFLOWS - OUTFLOWS =         -24667.43
             --------                                   --------

 TOTAL STORAGE CHANGE =       -8035111.45         STORAGE CHANGE =         -24677.84
       --------------                             --------------
         LAND SURFACE =           6921.38           LAND SURFACE =          -1297.31
            SOIL ZONE =         194822.55              SOIL ZONE =          -2900.11
     UNSATURATED ZONE =        4399652.57       UNSATURATED ZONE =         -23311.49
       SATURATED ZONE =       -1.2637D+07         SATURATED ZONE =           2831.07

 OVERALL BUDGET ERROR =        -100584.23           BUDGET ERROR =             10.41


  PERCENT DISCREPANCY =             -0.02    PERCENT DISCREPANCY =              0.04



1
 SUMMARY VOLUMETRIC BUDGET FOR GSFLOW 
 DATE: 08 27 1996              CUMULATIVE TIME STEP:    5810
 MODFLOW STRESS PERIOD      2     CURRENT TIME STEP:    5810     ITERATIONS:      12

 -----------------------------------------------------------------------------------

   CUMULATIVE VOLUMES               L**3   RATES FOR THIS TIME STEP           L**3/T
   ------------------                      ------------------------

                                     IN                                         IN
                                     --                                         --
        PRECIPITATION =        4.6531D+08          PRECIPITATION =                  
           STREAMFLOW =                               STREAMFLOW =                  
     GW BOUNDARY FLOW =                         GW BOUNDARY FLOW =                  


                                    OUT                                        OUT
                                    ---                                        ---
   EVAPOTRANSPIRATION =        2.8476D+08     EVAPOTRANSPIRATION =          15675.23
           STREAMFLOW =        1.8512D+08             STREAMFLOW =           6297.15
     GW BOUNDARY FLOW =        3759116.43       GW BOUNDARY FLOW =            649.54

   INFLOWS - OUTFLOWS =       -8324975.03     INFLOWS - OUTFLOWS =         -22621.92
             --------                                   --------

 TOTAL STORAGE CHANGE =       -8224535.09         STORAGE CHANGE =         -22651.46
       --------------                             --------------
         LAND SURFACE =           1243.96           LAND SURFACE =           -271.65
            SOIL ZONE =         153505.73              SOIL ZONE =          -2128.40
     UNSATURATED ZONE =        4240364.40       UNSATURATED ZONE =         -22212.94
       SATURATED ZONE =       -1.2620D+07         SATURATED ZONE =           1961.53

 OVERALL BUDGET ERROR =        -100439.95           BUDGET ERROR =             29.54


  PERCENT DISCREPANCY =             -0.02    PERCENT DISCREPANCY =              0.13



1
 SUMMARY VOLUMETRIC BUDGET FOR GSFLOW 
 DATE: 09 03 1996              CUMULATIVE TIME STEP:    5817
 MODFLOW STRESS PERIOD      2     CURRENT TIME STEP:    5817     ITERATIONS:      12

 -----------------------------------------------------------------------------------

   CUMULATIVE VOLUMES               L**3   RATES FOR THIS TIME STEP           L**3/T
   ------------------                      ------------------------

                                     IN                                         IN
                                     --                                         --
        PRECIPITATION =        4.6531D+08          PRECIPITATION =                  
           STREAMFLOW =                               STREAMFLOW =                  
     GW BOUNDARY FLOW =                         GW BOUNDARY FLOW =                  


                                    OUT                                        OUT
                                    ---                                        ---
   EVAPOTRANSPIRATION =        2.8487D+08     EVAPOTRANSPIRATION =          12598.86
           STREAMFLOW =        1.8516D+08             STREAMFLOW =           6192.46
     GW BOUNDARY FLOW =        3763661.61       GW BOUNDARY FLOW =            649.14

   INFLOWS - OUTFLOWS =       -8479853.32     INFLOWS - OUTFLOWS =         -19440.46
             --------                                   --------

 TOTAL STORAGE CHANGE =       -8379568.98         STORAGE CHANGE =         -19473.64
       --------------                             --------------
         LAND SURFACE =            583.76           LAND SURFACE =            -75.05
            SOIL ZONE =         139910.14              SOIL ZONE =            625.95
     UNSATURATED ZONE =        4085773.12       UNSATURATED ZONE =         -22040.24
       SATURATED ZONE =       -1.2606D+07         SATURATED ZONE =           2015.70

 OVERALL BUDGET ERROR =        -100284.34           BUDGET ERROR =             33.18


  PERCENT DISCREPANCY =             -0.02    PERCENT DISCREPANCY =              0.17



1
 SUMMARY VOLUMETRIC BUDGET FOR GSFLOW 
 DATE: 09 10 1996              CUMULATIVE TIME STEP:    5824
 MODFLOW STRESS PERIOD      2     CURRENT TIME STEP:    5824     ITERATIONS:      12

 -----------------------------------------------------------------------------------

   CUMULATIVE VOLUMES               L**3   RATES FOR THIS TIME STEP           L**3/T
   ------------------                      ------------------------

                                     IN                                         IN
                                     --                                         --
        PRECIPITATION =        4.6531D+08          PRECIPITATION =                  
           STREAMFLOW =                               STREAMFLOW =                  
     GW BOUNDARY FLOW =                         GW BOUNDARY FLOW =                  


                                    OUT                                        OUT
                                    ---                                        ---
   EVAPOTRANSPIRATION =        2.8495D+08     EVAPOTRANSPIRATION =          13596.12
           STREAMFLOW =        1.8520D+08             STREAMFLOW =           6100.19
     GW BOUNDARY FLOW =        3768204.04       GW BOUNDARY FLOW =            648.75

   INFLOWS - OUTFLOWS =       -8612534.33     INFLOWS - OUTFLOWS =         -20345.06
             --------                                   --------

 TOTAL STORAGE CHANGE =       -8512441.85         STORAGE CHANGE =         -20370.38
       --------------                             --------------
         LAND SURFACE =            141.35           LAND SURFACE =            -69.28
            SOIL ZONE =         146736.15              SOIL ZONE =           -502.19
     UNSATURATED ZONE =        3936381.88       UNSATURATED ZONE =         -20888.98
       SATURATED ZONE =       -1.2596D+07         SATURATED ZONE =           1090.07

 OVERALL BUDGET ERROR =        -100092.48           BUDGET ERROR =             25.33


  PERCENT DISCREPANCY =             -0.02    PERCENT DISCREPANCY =              0.12



1
 SUMMARY VOLUMETRIC BUDGET FOR GSFLOW 
 DATE: 09 17 1996              CUMULATIVE TIME STEP:    5831
 MODFLOW STRESS PERIOD      2     CURRENT TIME STEP:    5831     ITERATIONS:      12

 -----------------------------------------------------------------------------------

   CUMULATIVE VOLUMES               L**3   RATES FOR THIS TIME STEP           L**3/T
   ------------------                      ------------------------

                                     IN                                         IN
                                     --                                         --
        PRECIPITATION =        4.6637D+08          PRECIPITATION =                  
           STREAMFLOW =                               STREAMFLOW =                  
     GW BOUNDARY FLOW =                         GW BOUNDARY FLOW =                  


                                    OUT                                        OUT
                                    ---                                        ---
   EVAPOTRANSPIRATION =        2.8513D+08     EVAPOTRANSPIRATION =          58054.02
           STREAMFLOW =        1.8527D+08             STREAMFLOW =          10270.51
     GW BOUNDARY FLOW =        3772745.65       GW BOUNDARY FLOW =            649.14

   INFLOWS - OUTFLOWS =       -7806988.50     INFLOWS - OUTFLOWS =         -68973.67
             --------                                   --------

 TOTAL STORAGE CHANGE =       -7707183.16         STORAGE CHANGE =         -68999.08
       --------------                             --------------
         LAND SURFACE =           3348.24           LAND SURFACE =         -35098.95
            SOIL ZONE =        1084533.16              SOIL ZONE =         -14315.14
     UNSATURATED ZONE =        3794688.68       UNSATURATED ZONE =         -19849.53
       SATURATED ZONE =       -1.2590D+07         SATURATED ZONE =            264.54

 OVERALL BUDGET ERROR =         -99805.33           BUDGET ERROR =             25.42


  PERCENT DISCREPANCY =             -0.02    PERCENT DISCREPANCY =              0.04



1
 SUMMARY VOLUMETRIC BUDGET FOR GSFLOW 
 DATE: 09 24 1996              CUMULATIVE TIME STEP:    5838
 MODFLOW STRESS PERIOD      2     CURRENT TIME STEP:    5838     ITERATIONS:      16

 -----------------------------------------------------------------------------------

   CUMULATIVE VOLUMES               L**3   RATES FOR THIS TIME STEP           L**3/T
   ------------------                      ------------------------

                                     IN                                         IN
                                     --                                         --
        PRECIPITATION =        4.6637D+08          PRECIPITATION =                  
           STREAMFLOW =                               STREAMFLOW =                  
     GW BOUNDARY FLOW =                         GW BOUNDARY FLOW =                  


                                    OUT                                        OUT
                                    ---                                        ---
   EVAPOTRANSPIRATION =        2.8560D+08     EVAPOTRANSPIRATION =          54348.94
           STREAMFLOW =        1.8532D+08             STREAMFLOW =           6704.34
     GW BOUNDARY FLOW =        3777285.66       GW BOUNDARY FLOW =            648.23

   INFLOWS - OUTFLOWS =       -8338277.35     INFLOWS - OUTFLOWS =         -61701.52
             --------                                   --------

 TOTAL STORAGE CHANGE =       -8238635.79         STORAGE CHANGE =         -61704.15
       --------------                             --------------
         LAND SURFACE =                             LAND SURFACE =                  
            SOIL ZONE =         692794.31              SOIL ZONE =         -42321.30
     UNSATURATED ZONE =        3658356.66       UNSATURATED ZONE =         -19208.52
       SATURATED ZONE =       -1.2590D+07         SATURATED ZONE =           -174.33

 OVERALL BUDGET ERROR =         -99641.56           BUDGET ERROR =              2.64


  PERCENT DISCREPANCY =             -0.02    PERCENT DISCREPANCY =              0.00



 Number of time steps:   5844;  Number of non-convergence:   0
 MF iterations:         64651;  SZ iterations:           64582
 Average MF iterations: 11.06;  Average SZ iterations:   11.05
 Maximum MF iterations:    34;  Maximum SZ iterations:      25

mxsziter reached: 15

MF iteration distribution:      0    0    0   37  352  434  809  542  375  426
                              480  403  341  407  315  176  112  127  118  169
                              108   70   21    5    2    1    2    2    3    3
                                0    2    1    1    0    0    0    0    0    0
                                0    0    0    0    0    0    0    0    0    0
                                0    0    0    0    0    0    0    0    0    0
                                0    0    0    0    0    0    0    0    0    0
                                0    0    0    0    0    0    0    0    0    0

SZ computation distribution:    0    0    0   37  352  434  809  542  375  426
                              480  403  341  407  315  176  112  127  118  169
                              108   70   21    5   17    0    0    0    0    0
                                0    0    0    0    0    0    0    0    0    0
                                0    0    0    0    0    0    0    0    0    0
                                0    0    0    0    0    0    0    0    0    0
                                0    0    0    0    0    0    0    0    0    0
                                0    0    0    0    0    0    0    0    0    0

