1
 SUMMARY VOLUMETRIC BUDGET FOR GSFLOW 
 DATE: 10 07 1980              CUMULATIVE TIME STEP:       7
 MODFLOW STRESS PERIOD      2     CURRENT TIME STEP:       7     ITERATIONS:       6

 -----------------------------------------------------------------------------------

   CUMULATIVE VOLUMES               L**3   RATES FOR THIS TIME STEP           L**3/T
   ------------------                      ------------------------

                                     IN                                         IN
                                     --                                         --
        PRECIPITATION =                            PRECIPITATION =                  
           STREAMFLOW =                               STREAMFLOW =                  
     GW BOUNDARY FLOW =                         GW BOUNDARY FLOW =                  


                                    OUT                                        OUT
                                    ---                                        ---
   EVAPOTRANSPIRATION =          63501.87     EVAPOTRANSPIRATION =           9679.38
           STREAMFLOW =          42957.63             STREAMFLOW =           6065.77
     GW BOUNDARY FLOW =           4541.44       GW BOUNDARY FLOW =            648.70

   INFLOWS - OUTFLOWS =        -111000.94     INFLOWS - OUTFLOWS =         -16393.85
             --------                                   --------

 TOTAL STORAGE CHANGE =        -110545.15         STORAGE CHANGE =         -16325.53
       --------------                             --------------
         LAND SURFACE =                             LAND SURFACE =                  
            SOIL ZONE =          47015.18              SOIL ZONE =           6017.04
     UNSATURATED ZONE =        -144777.37       UNSATURATED ZONE =         -20360.11
       SATURATED ZONE =         -12782.96         SATURATED ZONE =          -1982.46

 OVERALL BUDGET ERROR =           -455.78           BUDGET ERROR =            -68.32


  PERCENT DISCREPANCY =             -0.41    PERCENT DISCREPANCY =             -0.42



1
 SUMMARY VOLUMETRIC BUDGET FOR GSFLOW 
 DATE: 10 14 1980              CUMULATIVE TIME STEP:      14
 MODFLOW STRESS PERIOD      2     CURRENT TIME STEP:      14     ITERATIONS:       6

 -----------------------------------------------------------------------------------

   CUMULATIVE VOLUMES               L**3   RATES FOR THIS TIME STEP           L**3/T
   ------------------                      ------------------------

                                     IN                                         IN
                                     --                                         --
        PRECIPITATION =         650779.83          PRECIPITATION =         164754.40
           STREAMFLOW =                               STREAMFLOW =                  
     GW BOUNDARY FLOW =                         GW BOUNDARY FLOW =                  


                                    OUT                                        OUT
                                    ---                                        ---
   EVAPOTRANSPIRATION =         147518.25     EVAPOTRANSPIRATION =           7886.47
           STREAMFLOW =          92677.69             STREAMFLOW =           7494.65
     GW BOUNDARY FLOW =           9082.78       GW BOUNDARY FLOW =            648.89

   INFLOWS - OUTFLOWS =         401501.11     INFLOWS - OUTFLOWS =         148724.38
             --------                                   --------

 TOTAL STORAGE CHANGE =         402471.61         STORAGE CHANGE =         148798.38
       --------------                             --------------
         LAND SURFACE =         277689.24           LAND SURFACE =         136623.45
            SOIL ZONE =         436909.22              SOIL ZONE =          34192.78
     UNSATURATED ZONE =        -284452.37       UNSATURATED ZONE =         -19623.49
       SATURATED ZONE =         -27674.48         SATURATED ZONE =          -2394.36

 OVERALL BUDGET ERROR =           -970.51           BUDGET ERROR =            -73.99


  PERCENT DISCREPANCY =             -0.15    PERCENT DISCREPANCY =             -0.04



1
 SUMMARY VOLUMETRIC BUDGET FOR GSFLOW 
 DATE: 10 21 1980              CUMULATIVE TIME STEP:      21
 MODFLOW STRESS PERIOD      2     CURRENT TIME STEP:      21     ITERATIONS:       6

 -----------------------------------------------------------------------------------

   CUMULATIVE VOLUMES               L**3   RATES FOR THIS TIME STEP           L**3/T
   ------------------                      ------------------------

                                     IN                                         IN
                                     --                                         --
        PRECIPITATION =         733157.03          PRECIPITATION =                  
           STREAMFLOW =                               STREAMFLOW =                  
     GW BOUNDARY FLOW =                         GW BOUNDARY FLOW =                  


                                    OUT                                        OUT
                                    ---                                        ---
   EVAPOTRANSPIRATION =         373106.44     EVAPOTRANSPIRATION =          36446.75
           STREAMFLOW =         144889.97             STREAMFLOW =           7105.83
     GW BOUNDARY FLOW =          13624.56       GW BOUNDARY FLOW =            648.77

   INFLOWS - OUTFLOWS =         201536.05     INFLOWS - OUTFLOWS =         -44201.35
             --------                                   --------

 TOTAL STORAGE CHANGE =         203016.16         STORAGE CHANGE =         -44120.61
       --------------                             --------------
         LAND SURFACE =           2250.88           LAND SURFACE =          -3153.72
            SOIL ZONE =         665732.84              SOIL ZONE =         -19175.28
     UNSATURATED ZONE =        -418622.05       UNSATURATED ZONE =         -18801.05
       SATURATED ZONE =         -46345.52         SATURATED ZONE =          -2990.56

 OVERALL BUDGET ERROR =          -1480.10           BUDGET ERROR =            -80.74


  PERCENT DISCREPANCY =             -0.20    PERCENT DISCREPANCY =             -0.18



1
 SUMMARY VOLUMETRIC BUDGET FOR GSFLOW 
 DATE: 10 28 1980              CUMULATIVE TIME STEP:      28
 MODFLOW STRESS PERIOD      2     CURRENT TIME STEP:      28     ITERATIONS:       6

 -----------------------------------------------------------------------------------

   CUMULATIVE VOLUMES               L**3   RATES FOR THIS TIME STEP           L**3/T
   ------------------                      ------------------------

                                     IN                                         IN
                                     --                                         --
        PRECIPITATION =        1070903.53          PRECIPITATION =                  
           STREAMFLOW =                               STREAMFLOW =                  
     GW BOUNDARY FLOW =                         GW BOUNDARY FLOW =                  


                                    OUT                                        OUT
                                    ---                                        ---
   EVAPOTRANSPIRATION =         550292.31     EVAPOTRANSPIRATION =          23594.60
           STREAMFLOW =         199839.69             STREAMFLOW =           7989.41
     GW BOUNDARY FLOW =          18165.91       GW BOUNDARY FLOW =            648.81

   INFLOWS - OUTFLOWS =         302605.61     INFLOWS - OUTFLOWS =         -32232.82
             --------                                   --------

 TOTAL STORAGE CHANGE =         304656.88         STORAGE CHANGE =         -32146.16
       --------------                             --------------
         LAND SURFACE =          24619.51           LAND SURFACE =         -30948.99
            SOIL ZONE =         896180.30              SOIL ZONE =          20270.66
     UNSATURATED ZONE =        -547225.20       UNSATURATED ZONE =         -17994.13
       SATURATED ZONE =         -68917.73         SATURATED ZONE =          -3473.70

 OVERALL BUDGET ERROR =          -2051.27           BUDGET ERROR =            -86.66


  PERCENT DISCREPANCY =             -0.19    PERCENT DISCREPANCY =             -0.27



1
 SUMMARY VOLUMETRIC BUDGET FOR GSFLOW 
 DATE: 11 04 1980              CUMULATIVE TIME STEP:      35
 MODFLOW STRESS PERIOD      2     CURRENT TIME STEP:      35     ITERATIONS:       8

 -----------------------------------------------------------------------------------

   CUMULATIVE VOLUMES               L**3   RATES FOR THIS TIME STEP           L**3/T
   ------------------                      ------------------------

                                     IN                                         IN
                                     --                                         --
        PRECIPITATION =        1070903.53          PRECIPITATION =                  
           STREAMFLOW =                               STREAMFLOW =                  
     GW BOUNDARY FLOW =                         GW BOUNDARY FLOW =                  


                                    OUT                                        OUT
                                    ---                                        ---
   EVAPOTRANSPIRATION =         825639.82     EVAPOTRANSPIRATION =          34462.11
           STREAMFLOW =         252307.62             STREAMFLOW =           7018.30
     GW BOUNDARY FLOW =          22706.92       GW BOUNDARY FLOW =            648.64

   INFLOWS - OUTFLOWS =         -29750.84     INFLOWS - OUTFLOWS =         -42129.05
             --------                                   --------

 TOTAL STORAGE CHANGE =         -27208.83         STORAGE CHANGE =         -42066.87
       --------------                             --------------
         LAND SURFACE =                             LAND SURFACE =                  
            SOIL ZONE =         739548.12              SOIL ZONE =         -20541.04
     UNSATURATED ZONE =        -670653.09       UNSATURATED ZONE =         -17361.18
       SATURATED ZONE =         -96103.86         SATURATED ZONE =          -4164.65

 OVERALL BUDGET ERROR =          -2542.01           BUDGET ERROR =            -62.19


  PERCENT DISCREPANCY =             -0.23    PERCENT DISCREPANCY =             -0.15



1
 SUMMARY VOLUMETRIC BUDGET FOR GSFLOW 
 DATE: 11 11 1980              CUMULATIVE TIME STEP:      42
 MODFLOW STRESS PERIOD      2     CURRENT TIME STEP:      42     ITERATIONS:       7

 -----------------------------------------------------------------------------------

   CUMULATIVE VOLUMES               L**3   RATES FOR THIS TIME STEP           L**3/T
   ------------------                      ------------------------

                                     IN                                         IN
                                     --                                         --
        PRECIPITATION =        1573762.54          PRECIPITATION =         255182.19
           STREAMFLOW =                               STREAMFLOW =                  
     GW BOUNDARY FLOW =                         GW BOUNDARY FLOW =                  


                                    OUT                                        OUT
                                    ---                                        ---
   EVAPOTRANSPIRATION =        1024607.07     EVAPOTRANSPIRATION =          14645.82
           STREAMFLOW =         308283.86             STREAMFLOW =          10773.72
     GW BOUNDARY FLOW =          27247.64       GW BOUNDARY FLOW =            648.84

   INFLOWS - OUTFLOWS =         213623.97     INFLOWS - OUTFLOWS =         229113.80
             --------                                   --------

 TOTAL STORAGE CHANGE =         216711.52         STORAGE CHANGE =         229178.42
       --------------                             --------------
         LAND SURFACE =          78612.95           LAND SURFACE =          76659.87
            SOIL ZONE =        1053404.43              SOIL ZONE =         173142.30
     UNSATURATED ZONE =        -789255.30       UNSATURATED ZONE =         -16535.15
       SATURATED ZONE =        -126050.56         SATURATED ZONE =          -4088.60

 OVERALL BUDGET ERROR =          -3087.56           BUDGET ERROR =            -64.62


  PERCENT DISCREPANCY =             -0.20    PERCENT DISCREPANCY =             -0.03



1
 SUMMARY VOLUMETRIC BUDGET FOR GSFLOW 
 DATE: 11 18 1980              CUMULATIVE TIME STEP:      49
 MODFLOW STRESS PERIOD      2     CURRENT TIME STEP:      49     ITERATIONS:       7

 -----------------------------------------------------------------------------------

   CUMULATIVE VOLUMES               L**3   RATES FOR THIS TIME STEP           L**3/T
   ------------------                      ------------------------

                                     IN                                         IN
                                     --                                         --
        PRECIPITATION =        1573762.54          PRECIPITATION =                  
           STREAMFLOW =                               STREAMFLOW =                  
     GW BOUNDARY FLOW =                         GW BOUNDARY FLOW =                  


                                    OUT                                        OUT
                                    ---                                        ---
   EVAPOTRANSPIRATION =        1113097.93     EVAPOTRANSPIRATION =          16687.23
           STREAMFLOW =         371225.28             STREAMFLOW =           9364.74
     GW BOUNDARY FLOW =          31789.52       GW BOUNDARY FLOW =            648.86

   INFLOWS - OUTFLOWS =          57649.81     INFLOWS - OUTFLOWS =         -26700.83
             --------                                   --------

 TOTAL STORAGE CHANGE =          61345.44         STORAGE CHANGE =         -26624.83
       --------------                             --------------
         LAND SURFACE =           8654.86           LAND SURFACE =          -6203.23
            SOIL ZONE =        1114557.00              SOIL ZONE =            419.11
     UNSATURATED ZONE =        -903158.34       UNSATURATED ZONE =         -16016.65
       SATURATED ZONE =        -158708.08         SATURATED ZONE =          -4824.06

 OVERALL BUDGET ERROR =          -3695.63           BUDGET ERROR =            -76.00


  PERCENT DISCREPANCY =             -0.23    PERCENT DISCREPANCY =             -0.29



1
 SUMMARY VOLUMETRIC BUDGET FOR GSFLOW 
 DATE: 11 25 1980              CUMULATIVE TIME STEP:      56
 MODFLOW STRESS PERIOD      2     CURRENT TIME STEP:      56     ITERATIONS:       8

 -----------------------------------------------------------------------------------

   CUMULATIVE VOLUMES               L**3   RATES FOR THIS TIME STEP           L**3/T
   ------------------                      ------------------------

                                     IN                                         IN
                                     --                                         --
        PRECIPITATION =        1648816.13          PRECIPITATION =                  
           STREAMFLOW =                               STREAMFLOW =                  
     GW BOUNDARY FLOW =                         GW BOUNDARY FLOW =                  


                                    OUT                                        OUT
                                    ---                                        ---
   EVAPOTRANSPIRATION =        1185738.58     EVAPOTRANSPIRATION =           8792.25
           STREAMFLOW =         438528.69             STREAMFLOW =           9976.05
     GW BOUNDARY FLOW =          36331.82       GW BOUNDARY FLOW =            648.94

   INFLOWS - OUTFLOWS =         -11782.96     INFLOWS - OUTFLOWS =         -19417.23
             --------                                   --------

 TOTAL STORAGE CHANGE =          -7553.86         STORAGE CHANGE =         -19352.67
       --------------                             --------------
         LAND SURFACE =          55166.83           LAND SURFACE =          -8744.58
            SOIL ZONE =        1144800.11              SOIL ZONE =          10128.28
     UNSATURATED ZONE =       -1012779.74       UNSATURATED ZONE =         -15405.64
       SATURATED ZONE =        -194741.07         SATURATED ZONE =          -5330.74

 OVERALL BUDGET ERROR =          -4229.10           BUDGET ERROR =            -64.56


  PERCENT DISCREPANCY =             -0.25    PERCENT DISCREPANCY =             -0.33



1
 SUMMARY VOLUMETRIC BUDGET FOR GSFLOW 
 DATE: 12 02 1980              CUMULATIVE TIME STEP:      63
 MODFLOW STRESS PERIOD      2     CURRENT TIME STEP:      63     ITERATIONS:       8

 -----------------------------------------------------------------------------------

   CUMULATIVE VOLUMES               L**3   RATES FOR THIS TIME STEP           L**3/T
   ------------------                      ------------------------

                                     IN                                         IN
                                     --                                         --
        PRECIPITATION =        2076621.55          PRECIPITATION =                  
           STREAMFLOW =                               STREAMFLOW =                  
     GW BOUNDARY FLOW =                         GW BOUNDARY FLOW =                  


                                    OUT                                        OUT
                                    ---                                        ---
   EVAPOTRANSPIRATION =        1375200.33     EVAPOTRANSPIRATION =          33951.94
           STREAMFLOW =         523919.31             STREAMFLOW =          15368.05
     GW BOUNDARY FLOW =          40875.80       GW BOUNDARY FLOW =            649.45

   INFLOWS - OUTFLOWS =         136626.11     INFLOWS - OUTFLOWS =         -49969.44
             --------                                   --------

 TOTAL STORAGE CHANGE =         141297.55         STORAGE CHANGE =         -49917.94
       --------------                             --------------
         LAND SURFACE =         152551.10           LAND SURFACE =         -75205.42
            SOIL ZONE =        1333562.70              SOIL ZONE =          42839.21
     UNSATURATED ZONE =       -1114204.23       UNSATURATED ZONE =         -12953.88
       SATURATED ZONE =        -230612.03         SATURATED ZONE =          -4597.84

 OVERALL BUDGET ERROR =          -4671.43           BUDGET ERROR =            -51.51


  PERCENT DISCREPANCY =             -0.22    PERCENT DISCREPANCY =             -0.10



1
 SUMMARY VOLUMETRIC BUDGET FOR GSFLOW 
 DATE: 12 09 1980              CUMULATIVE TIME STEP:      70
 MODFLOW STRESS PERIOD      2     CURRENT TIME STEP:      70     ITERATIONS:       8

 -----------------------------------------------------------------------------------

   CUMULATIVE VOLUMES               L**3   RATES FOR THIS TIME STEP           L**3/T
   ------------------                      ------------------------

                                     IN                                         IN
                                     --                                         --
        PRECIPITATION =        4284363.63          PRECIPITATION =                  
           STREAMFLOW =                               STREAMFLOW =                  
     GW BOUNDARY FLOW =                         GW BOUNDARY FLOW =                  


                                    OUT                                        OUT
                                    ---                                        ---
   EVAPOTRANSPIRATION =        1398618.69     EVAPOTRANSPIRATION =           2942.43
           STREAMFLOW =         624566.58             STREAMFLOW =          14710.47
     GW BOUNDARY FLOW =          45422.80       GW BOUNDARY FLOW =            649.67

   INFLOWS - OUTFLOWS =        2215755.56     INFLOWS - OUTFLOWS =         -18302.57
             --------                                   --------

 TOTAL STORAGE CHANGE =        2220886.40         STORAGE CHANGE =         -18250.96
       --------------                             --------------
         LAND SURFACE =        2335216.87           LAND SURFACE =          -2942.43
            SOIL ZONE =        1367919.35              SOIL ZONE =           4916.75
     UNSATURATED ZONE =       -1212495.90       UNSATURATED ZONE =         -14224.41
       SATURATED ZONE =        -269753.92         SATURATED ZONE =          -6000.87

 OVERALL BUDGET ERROR =          -5130.84           BUDGET ERROR =            -51.61


  PERCENT DISCREPANCY =             -0.12    PERCENT DISCREPANCY =             -0.28



1
 SUMMARY VOLUMETRIC BUDGET FOR GSFLOW 
 DATE: 12 16 1980              CUMULATIVE TIME STEP:      77
 MODFLOW STRESS PERIOD      2     CURRENT TIME STEP:      77     ITERATIONS:       7

 -----------------------------------------------------------------------------------

   CUMULATIVE VOLUMES               L**3   RATES FOR THIS TIME STEP           L**3/T
   ------------------                      ------------------------

                                     IN                                         IN
                                     --                                         --
        PRECIPITATION =        4284363.63          PRECIPITATION =                  
           STREAMFLOW =                               STREAMFLOW =                  
     GW BOUNDARY FLOW =                         GW BOUNDARY FLOW =                  


                                    OUT                                        OUT
                                    ---                                        ---
   EVAPOTRANSPIRATION =        1540612.59     EVAPOTRANSPIRATION =          33883.35
           STREAMFLOW =         746423.53             STREAMFLOW =          25216.11
     GW BOUNDARY FLOW =          49971.61       GW BOUNDARY FLOW =            650.27

   INFLOWS - OUTFLOWS =        1947355.90     INFLOWS - OUTFLOWS =         -59749.74
             --------                                   --------

 TOTAL STORAGE CHANGE =        1952917.96         STORAGE CHANGE =         -59684.49
       --------------                             --------------
         LAND SURFACE =        2023939.67           LAND SURFACE =        -129021.52
            SOIL ZONE =        1541255.84              SOIL ZONE =          82705.69
     UNSATURATED ZONE =       -1302229.42       UNSATURATED ZONE =          -8985.79
       SATURATED ZONE =        -310048.13         SATURATED ZONE =          -4382.87

 OVERALL BUDGET ERROR =          -5562.06           BUDGET ERROR =            -65.25


  PERCENT DISCREPANCY =             -0.13    PERCENT DISCREPANCY =             -0.11



1
 SUMMARY VOLUMETRIC BUDGET FOR GSFLOW 
 DATE: 12 23 1980              CUMULATIVE TIME STEP:      84
 MODFLOW STRESS PERIOD      2     CURRENT TIME STEP:      84     ITERATIONS:       9

 -----------------------------------------------------------------------------------

   CUMULATIVE VOLUMES               L**3   RATES FOR THIS TIME STEP           L**3/T
   ------------------                      ------------------------

                                     IN                                         IN
                                     --                                         --
        PRECIPITATION =        4516757.54          PRECIPITATION =                  
           STREAMFLOW =                               STREAMFLOW =                  
     GW BOUNDARY FLOW =                         GW BOUNDARY FLOW =                  


                                    OUT                                        OUT
                                    ---                                        ---
   EVAPOTRANSPIRATION =        1746654.74     EVAPOTRANSPIRATION =          35140.32
           STREAMFLOW =         975468.06             STREAMFLOW =          30480.17
     GW BOUNDARY FLOW =          54532.14       GW BOUNDARY FLOW =            651.94

   INFLOWS - OUTFLOWS =        1740102.59     INFLOWS - OUTFLOWS =         -66272.43
             --------                                   --------

 TOTAL STORAGE CHANGE =        1745984.63         STORAGE CHANGE =         -66234.60
       --------------                             --------------
         LAND SURFACE =        1433268.50           LAND SURFACE =         -48191.47
            SOIL ZONE =        1993544.38              SOIL ZONE =          -8134.02
     UNSATURATED ZONE =       -1342656.02       UNSATURATED ZONE =          -5276.27
       SATURATED ZONE =        -338172.22         SATURATED ZONE =          -4632.83

 OVERALL BUDGET ERROR =          -5882.04           BUDGET ERROR =            -37.82


  PERCENT DISCREPANCY =             -0.13    PERCENT DISCREPANCY =             -0.06



1
 SUMMARY VOLUMETRIC BUDGET FOR GSFLOW 
 DATE: 12 30 1980              CUMULATIVE TIME STEP:      91
 MODFLOW STRESS PERIOD      2     CURRENT TIME STEP:      91     ITERATIONS:      11

 -----------------------------------------------------------------------------------

   CUMULATIVE VOLUMES               L**3   RATES FOR THIS TIME STEP           L**3/T
   ------------------                      ------------------------

                                     IN                                         IN
                                     --                                         --
        PRECIPITATION =        4516757.54          PRECIPITATION =                  
           STREAMFLOW =                               STREAMFLOW =                  
     GW BOUNDARY FLOW =                         GW BOUNDARY FLOW =                  


                                    OUT                                        OUT
                                    ---                                        ---
   EVAPOTRANSPIRATION =        2107287.25     EVAPOTRANSPIRATION =          45887.78
           STREAMFLOW =        1224105.13             STREAMFLOW =          27636.31
     GW BOUNDARY FLOW =          59099.13       GW BOUNDARY FLOW =            652.41

   INFLOWS - OUTFLOWS =        1126266.03     INFLOWS - OUTFLOWS =         -74176.51
             --------                                   --------

 TOTAL STORAGE CHANGE =        1132316.55         STORAGE CHANGE =         -74149.90
       --------------                             --------------
         LAND SURFACE =         641159.81           LAND SURFACE =         -40370.17
            SOIL ZONE =        2204218.49              SOIL ZONE =         -24674.35
     UNSATURATED ZONE =       -1350202.36       UNSATURATED ZONE =          -4990.50
       SATURATED ZONE =        -362859.40         SATURATED ZONE =          -4114.88

 OVERALL BUDGET ERROR =          -6050.52           BUDGET ERROR =            -26.60


  PERCENT DISCREPANCY =             -0.13    PERCENT DISCREPANCY =             -0.04



1
 SUMMARY VOLUMETRIC BUDGET FOR GSFLOW 
 DATE: 01 06 1981              CUMULATIVE TIME STEP:      98
 MODFLOW STRESS PERIOD      2     CURRENT TIME STEP:      98     ITERATIONS:       8

 -----------------------------------------------------------------------------------

   CUMULATIVE VOLUMES               L**3   RATES FOR THIS TIME STEP           L**3/T
   ------------------                      ------------------------

                                     IN                                         IN
                                     --                                         --
        PRECIPITATION =        5004445.43          PRECIPITATION =                  
           STREAMFLOW =                               STREAMFLOW =                  
     GW BOUNDARY FLOW =                         GW BOUNDARY FLOW =                  


                                    OUT                                        OUT
                                    ---                                        ---
   EVAPOTRANSPIRATION =        2335212.00     EVAPOTRANSPIRATION =          21388.78
           STREAMFLOW =        1379712.00             STREAMFLOW =          21364.73
     GW BOUNDARY FLOW =          63660.90       GW BOUNDARY FLOW =            651.28

   INFLOWS - OUTFLOWS =        1225860.53     INFLOWS - OUTFLOWS =         -43404.78
             --------                                   --------

 TOTAL STORAGE CHANGE =        1232121.42         STORAGE CHANGE =         -43366.92
       --------------                             --------------
         LAND SURFACE =         837080.27           LAND SURFACE =         -30417.06
            SOIL ZONE =        2210204.68              SOIL ZONE =           2615.73
     UNSATURATED ZONE =       -1415105.33       UNSATURATED ZONE =          -9926.44
       SATURATED ZONE =        -400058.20         SATURATED ZONE =          -5639.14

 OVERALL BUDGET ERROR =          -6260.90           BUDGET ERROR =            -37.87


  PERCENT DISCREPANCY =             -0.13    PERCENT DISCREPANCY =             -0.09



1
 SUMMARY VOLUMETRIC BUDGET FOR GSFLOW 
 DATE: 01 13 1981              CUMULATIVE TIME STEP:     105
 MODFLOW STRESS PERIOD      2     CURRENT TIME STEP:     105     ITERATIONS:       7

 -----------------------------------------------------------------------------------

   CUMULATIVE VOLUMES               L**3   RATES FOR THIS TIME STEP           L**3/T
   ------------------                      ------------------------

                                     IN                                         IN
                                     --                                         --
        PRECIPITATION =        5004445.43          PRECIPITATION =                  
           STREAMFLOW =                               STREAMFLOW =                  
     GW BOUNDARY FLOW =                         GW BOUNDARY FLOW =                  


                                    OUT                                        OUT
                                    ---                                        ---
   EVAPOTRANSPIRATION =        2552722.08     EVAPOTRANSPIRATION =          44453.93
           STREAMFLOW =        1528645.25             STREAMFLOW =          20147.48
     GW BOUNDARY FLOW =          68218.18       GW BOUNDARY FLOW =            650.85

   INFLOWS - OUTFLOWS =         854859.92     INFLOWS - OUTFLOWS =         -65252.26
             --------                                   --------

 TOTAL STORAGE CHANGE =         861491.14         STORAGE CHANGE =         -65188.73
       --------------                             --------------
         LAND SURFACE =         626702.00           LAND SURFACE =         -38991.59
            SOIL ZONE =        2156499.91              SOIL ZONE =         -10593.53
     UNSATURATED ZONE =       -1478926.33       UNSATURATED ZONE =          -9119.24
       SATURATED ZONE =        -442784.45         SATURATED ZONE =          -6484.37

 OVERALL BUDGET ERROR =          -6631.21           BUDGET ERROR =            -63.53


  PERCENT DISCREPANCY =             -0.13    PERCENT DISCREPANCY =             -0.10



1
 SUMMARY VOLUMETRIC BUDGET FOR GSFLOW 
 DATE: 01 20 1981              CUMULATIVE TIME STEP:     112
 MODFLOW STRESS PERIOD      2     CURRENT TIME STEP:     112     ITERATIONS:       7

 -----------------------------------------------------------------------------------

   CUMULATIVE VOLUMES               L**3   RATES FOR THIS TIME STEP           L**3/T
   ------------------                      ------------------------

                                     IN                                         IN
                                     --                                         --
        PRECIPITATION =        5170466.84          PRECIPITATION =          41505.35
           STREAMFLOW =                               STREAMFLOW =                  
     GW BOUNDARY FLOW =                         GW BOUNDARY FLOW =                  


                                    OUT                                        OUT
                                    ---                                        ---
   EVAPOTRANSPIRATION =        2833971.06     EVAPOTRANSPIRATION =          34835.17
           STREAMFLOW =        1671216.92             STREAMFLOW =          20265.60
     GW BOUNDARY FLOW =          72773.11       GW BOUNDARY FLOW =            650.66

   INFLOWS - OUTFLOWS =         592505.75     INFLOWS - OUTFLOWS =         -14246.08
             --------                                   --------

 TOTAL STORAGE CHANGE =         599464.36         STORAGE CHANGE =         -14192.20
       --------------                             --------------
         LAND SURFACE =         436285.42           LAND SURFACE =           4326.68
            SOIL ZONE =        2159438.97              SOIL ZONE =         -10241.26
     UNSATURATED ZONE =       -1509551.40       UNSATURATED ZONE =          -1785.72
       SATURATED ZONE =        -486708.63         SATURATED ZONE =          -6491.90

 OVERALL BUDGET ERROR =          -6958.61           BUDGET ERROR =            -53.88


  PERCENT DISCREPANCY =             -0.13    PERCENT DISCREPANCY =             -0.10



1
 SUMMARY VOLUMETRIC BUDGET FOR GSFLOW 
 DATE: 01 27 1981              CUMULATIVE TIME STEP:     119
 MODFLOW STRESS PERIOD      2     CURRENT TIME STEP:     119     ITERATIONS:       9

 -----------------------------------------------------------------------------------

   CUMULATIVE VOLUMES               L**3   RATES FOR THIS TIME STEP           L**3/T
   ------------------                      ------------------------

                                     IN                                         IN
                                     --                                         --
        PRECIPITATION =        8646540.08          PRECIPITATION =        2936503.63
           STREAMFLOW =                               STREAMFLOW =                  
     GW BOUNDARY FLOW =                         GW BOUNDARY FLOW =                  


                                    OUT                                        OUT
                                    ---                                        ---
   EVAPOTRANSPIRATION =        3067737.07     EVAPOTRANSPIRATION =          13120.97
           STREAMFLOW =        1817612.27             STREAMFLOW =          18747.09
     GW BOUNDARY FLOW =          77327.59       GW BOUNDARY FLOW =            650.46

   INFLOWS - OUTFLOWS =        3683863.14     INFLOWS - OUTFLOWS =        2903985.12
             --------                                   --------

 TOTAL STORAGE CHANGE =        3691002.77         STORAGE CHANGE =        2904008.80
       --------------                             --------------
         LAND SURFACE =        3540180.85           LAND SURFACE =        2923352.24
            SOIL ZONE =        2180468.32              SOIL ZONE =          -7861.39
     UNSATURATED ZONE =       -1498406.18       UNSATURATED ZONE =          -4738.21
       SATURATED ZONE =        -531240.22         SATURATED ZONE =          -6743.84

 OVERALL BUDGET ERROR =          -7139.63           BUDGET ERROR =            -23.68


  PERCENT DISCREPANCY =             -0.08    PERCENT DISCREPANCY =             -0.00



1
 SUMMARY VOLUMETRIC BUDGET FOR GSFLOW 
 DATE: 02 03 1981              CUMULATIVE TIME STEP:     126
 MODFLOW STRESS PERIOD      2     CURRENT TIME STEP:     126     ITERATIONS:       9

 -----------------------------------------------------------------------------------

   CUMULATIVE VOLUMES               L**3   RATES FOR THIS TIME STEP           L**3/T
   ------------------                      ------------------------

                                     IN                                         IN
                                     --                                         --
        PRECIPITATION =        1.1739D+07          PRECIPITATION =                  
           STREAMFLOW =                               STREAMFLOW =                  
     GW BOUNDARY FLOW =                         GW BOUNDARY FLOW =                  


                                    OUT                                        OUT
                                    ---                                        ---
   EVAPOTRANSPIRATION =        3104250.12     EVAPOTRANSPIRATION =           6975.48
           STREAMFLOW =        1944621.29             STREAMFLOW =          18014.91
     GW BOUNDARY FLOW =          81879.77       GW BOUNDARY FLOW =            650.26

   INFLOWS - OUTFLOWS =        6607937.60     INFLOWS - OUTFLOWS =         -25640.65
             --------                                   --------

 TOTAL STORAGE CHANGE =        6615228.94         STORAGE CHANGE =         -25622.02
       --------------                             --------------
         LAND SURFACE =        6595816.50           LAND SURFACE =          -6975.48
            SOIL ZONE =        2169018.27              SOIL ZONE =            419.76
     UNSATURATED ZONE =       -1567277.20       UNSATURATED ZONE =         -11416.45
       SATURATED ZONE =        -582328.63         SATURATED ZONE =          -7649.84

 OVERALL BUDGET ERROR =          -7291.34           BUDGET ERROR =            -18.63


  PERCENT DISCREPANCY =             -0.06    PERCENT DISCREPANCY =             -0.07



1
 SUMMARY VOLUMETRIC BUDGET FOR GSFLOW 
 DATE: 02 10 1981              CUMULATIVE TIME STEP:     133
 MODFLOW STRESS PERIOD      2     CURRENT TIME STEP:     133     ITERATIONS:       7

 -----------------------------------------------------------------------------------

   CUMULATIVE VOLUMES               L**3   RATES FOR THIS TIME STEP           L**3/T
   ------------------                      ------------------------

                                     IN                                         IN
                                     --                                         --
        PRECIPITATION =        1.1838D+07          PRECIPITATION =                  
           STREAMFLOW =                               STREAMFLOW =                  
     GW BOUNDARY FLOW =                         GW BOUNDARY FLOW =                  


                                    OUT                                        OUT
                                    ---                                        ---
   EVAPOTRANSPIRATION =        3229651.18     EVAPOTRANSPIRATION =          32880.06
           STREAMFLOW =        2070944.15             STREAMFLOW =          18066.73
     GW BOUNDARY FLOW =          86431.56       GW BOUNDARY FLOW =            650.25

   INFLOWS - OUTFLOWS =        6451226.39     INFLOWS - OUTFLOWS =         -51597.03
             --------                                   --------

 TOTAL STORAGE CHANGE =        6458830.20         STORAGE CHANGE =         -51537.34
       --------------                             --------------
         LAND SURFACE =        6569979.95           LAND SURFACE =         -32880.06
            SOIL ZONE =        2173149.68              SOIL ZONE =            561.09
     UNSATURATED ZONE =       -1645783.30       UNSATURATED ZONE =         -10843.22
       SATURATED ZONE =        -638516.12         SATURATED ZONE =          -8375.15

 OVERALL BUDGET ERROR =          -7603.81           BUDGET ERROR =            -59.69


  PERCENT DISCREPANCY =             -0.06    PERCENT DISCREPANCY =             -0.12



1
 SUMMARY VOLUMETRIC BUDGET FOR GSFLOW 
 DATE: 02 17 1981              CUMULATIVE TIME STEP:     140
 MODFLOW STRESS PERIOD      2     CURRENT TIME STEP:     140     ITERATIONS:      14

 -----------------------------------------------------------------------------------

   CUMULATIVE VOLUMES               L**3   RATES FOR THIS TIME STEP           L**3/T
   ------------------                      ------------------------

                                     IN                                         IN
                                     --                                         --
        PRECIPITATION =        1.2765D+07          PRECIPITATION =          68929.28
           STREAMFLOW =                               STREAMFLOW =                  
     GW BOUNDARY FLOW =                         GW BOUNDARY FLOW =                  


                                    OUT                                        OUT
                                    ---                                        ---
   EVAPOTRANSPIRATION =        3567748.98     EVAPOTRANSPIRATION =          68607.56
           STREAMFLOW =        2616674.71             STREAMFLOW =         125638.91
     GW BOUNDARY FLOW =          91005.54       GW BOUNDARY FLOW =            656.87

   INFLOWS - OUTFLOWS =        6489539.88     INFLOWS - OUTFLOWS =        -125974.06
             --------                                   --------

 TOTAL STORAGE CHANGE =        6497411.59         STORAGE CHANGE =        -125961.79
       --------------                             --------------
         LAND SURFACE =        5590061.12           LAND SURFACE =        -278671.93
            SOIL ZONE =        2961591.52              SOIL ZONE =          72159.84
     UNSATURATED ZONE =       -1400074.22       UNSATURATED ZONE =          77969.05
       SATURATED ZONE =        -654166.83         SATURATED ZONE =           2581.26

 OVERALL BUDGET ERROR =          -7871.71           BUDGET ERROR =            -12.28


  PERCENT DISCREPANCY =             -0.06    PERCENT DISCREPANCY =             -0.01



1
 SUMMARY VOLUMETRIC BUDGET FOR GSFLOW 
 DATE: 02 24 1981              CUMULATIVE TIME STEP:     147
 MODFLOW STRESS PERIOD      2     CURRENT TIME STEP:     147     ITERATIONS:      14

 -----------------------------------------------------------------------------------

   CUMULATIVE VOLUMES               L**3   RATES FOR THIS TIME STEP           L**3/T
   ------------------                      ------------------------

                                     IN                                         IN
                                     --                                         --
        PRECIPITATION =        1.3179D+07          PRECIPITATION =         344646.37
           STREAMFLOW =                               STREAMFLOW =                  
     GW BOUNDARY FLOW =                         GW BOUNDARY FLOW =                  


                                    OUT                                        OUT
                                    ---                                        ---
   EVAPOTRANSPIRATION =        3909070.56     EVAPOTRANSPIRATION =          18832.76
           STREAMFLOW =        3176757.29             STREAMFLOW =          52180.29
     GW BOUNDARY FLOW =          95598.81       GW BOUNDARY FLOW =            655.15

   INFLOWS - OUTFLOWS =        5997118.09     INFLOWS - OUTFLOWS =         272978.16
             --------                                   --------

 TOTAL STORAGE CHANGE =        6004942.48         STORAGE CHANGE =         272974.33
       --------------                             --------------
         LAND SURFACE =        4984244.22           LAND SURFACE =         286368.61
            SOIL ZONE =        2698138.11              SOIL ZONE =         -43302.30
     UNSATURATED ZONE =       -1047573.58       UNSATURATED ZONE =          27488.17
       SATURATED ZONE =        -629866.27         SATURATED ZONE =           2419.85

 OVERALL BUDGET ERROR =          -7824.39           BUDGET ERROR =              3.83


  PERCENT DISCREPANCY =             -0.06    PERCENT DISCREPANCY =              0.00



1
 SUMMARY VOLUMETRIC BUDGET FOR GSFLOW 
 DATE: 03 03 1981              CUMULATIVE TIME STEP:     154
 MODFLOW STRESS PERIOD      2     CURRENT TIME STEP:     154     ITERATIONS:      11

 -----------------------------------------------------------------------------------

   CUMULATIVE VOLUMES               L**3   RATES FOR THIS TIME STEP           L**3/T
   ------------------                      ------------------------

                                     IN                                         IN
                                     --                                         --
        PRECIPITATION =        1.3447D+07          PRECIPITATION =                  
           STREAMFLOW =                               STREAMFLOW =                  
     GW BOUNDARY FLOW =                         GW BOUNDARY FLOW =                  


                                    OUT                                        OUT
                                    ---                                        ---
   EVAPOTRANSPIRATION =        4069753.29     EVAPOTRANSPIRATION =          45353.75
           STREAMFLOW =        3401122.80             STREAMFLOW =          27810.21
     GW BOUNDARY FLOW =         100171.78       GW BOUNDARY FLOW =            652.32

   INFLOWS - OUTFLOWS =        5875555.17     INFLOWS - OUTFLOWS =         -73816.28
             --------                                   --------

 TOTAL STORAGE CHANGE =        5883265.87         STORAGE CHANGE =         -73831.07
       --------------                             --------------
         LAND SURFACE =        5068137.31           LAND SURFACE =         -66041.98
            SOIL ZONE =        2489693.25              SOIL ZONE =           2873.42
     UNSATURATED ZONE =       -1041089.72       UNSATURATED ZONE =          -8826.89
       SATURATED ZONE =        -633474.97         SATURATED ZONE =          -1835.62

 OVERALL BUDGET ERROR =          -7710.71           BUDGET ERROR =             14.79


  PERCENT DISCREPANCY =             -0.06    PERCENT DISCREPANCY =              0.02



1
 SUMMARY VOLUMETRIC BUDGET FOR GSFLOW 
 DATE: 03 10 1981              CUMULATIVE TIME STEP:     161
 MODFLOW STRESS PERIOD      2     CURRENT TIME STEP:     161     ITERATIONS:      11

 -----------------------------------------------------------------------------------

   CUMULATIVE VOLUMES               L**3   RATES FOR THIS TIME STEP           L**3/T
   ------------------                      ------------------------

                                     IN                                         IN
                                     --                                         --
        PRECIPITATION =        1.3493D+07          PRECIPITATION =                  
           STREAMFLOW =                               STREAMFLOW =                  
     GW BOUNDARY FLOW =                         GW BOUNDARY FLOW =                  


                                    OUT                                        OUT
                                    ---                                        ---
   EVAPOTRANSPIRATION =        4415542.88     EVAPOTRANSPIRATION =          72811.00
           STREAMFLOW =        3637453.81             STREAMFLOW =          43703.40
     GW BOUNDARY FLOW =         104737.89       GW BOUNDARY FLOW =            652.94

   INFLOWS - OUTFLOWS =        5335206.58     INFLOWS - OUTFLOWS =        -117167.34
             --------                                   --------

 TOTAL STORAGE CHANGE =        5342830.62         STORAGE CHANGE =        -117180.44
       --------------                             --------------
         LAND SURFACE =        4391652.97           LAND SURFACE =        -169089.79
            SOIL ZONE =        2603638.56              SOIL ZONE =          28982.25
     UNSATURATED ZONE =       -1008018.88       UNSATURATED ZONE =          23159.65
       SATURATED ZONE =        -644442.03         SATURATED ZONE =           -232.56

 OVERALL BUDGET ERROR =          -7624.05           BUDGET ERROR =             13.10


  PERCENT DISCREPANCY =             -0.06    PERCENT DISCREPANCY =              0.01



1
 SUMMARY VOLUMETRIC BUDGET FOR GSFLOW 
 DATE: 03 17 1981              CUMULATIVE TIME STEP:     168
 MODFLOW STRESS PERIOD      2     CURRENT TIME STEP:     168     ITERATIONS:       9

 -----------------------------------------------------------------------------------

   CUMULATIVE VOLUMES               L**3   RATES FOR THIS TIME STEP           L**3/T
   ------------------                      ------------------------

                                     IN                                         IN
                                     --                                         --
        PRECIPITATION =        1.3744D+07          PRECIPITATION =                  
           STREAMFLOW =                               STREAMFLOW =                  
     GW BOUNDARY FLOW =                         GW BOUNDARY FLOW =                  


                                    OUT                                        OUT
                                    ---                                        ---
   EVAPOTRANSPIRATION =        4783952.63     EVAPOTRANSPIRATION =          40234.36
           STREAMFLOW =        3864790.47             STREAMFLOW =          24167.59
     GW BOUNDARY FLOW =         109305.21       GW BOUNDARY FLOW =            651.88

   INFLOWS - OUTFLOWS =        4986442.57     INFLOWS - OUTFLOWS =         -65053.84
             --------                                   --------

 TOTAL STORAGE CHANGE =        4993981.14         STORAGE CHANGE =         -65058.91
       --------------                             --------------
         LAND SURFACE =        4202420.68           LAND SURFACE =         -39897.13
            SOIL ZONE =        2438297.69              SOIL ZONE =          -5409.99
     UNSATURATED ZONE =        -987187.48       UNSATURATED ZONE =         -15784.91
       SATURATED ZONE =        -659549.75         SATURATED ZONE =          -3966.88

 OVERALL BUDGET ERROR =          -7538.57           BUDGET ERROR =              5.07


  PERCENT DISCREPANCY =             -0.05    PERCENT DISCREPANCY =              0.01



1
 SUMMARY VOLUMETRIC BUDGET FOR GSFLOW 
 DATE: 03 24 1981              CUMULATIVE TIME STEP:     175
 MODFLOW STRESS PERIOD      2     CURRENT TIME STEP:     175     ITERATIONS:       9

 -----------------------------------------------------------------------------------

   CUMULATIVE VOLUMES               L**3   RATES FOR THIS TIME STEP           L**3/T
   ------------------                      ------------------------

                                     IN                                         IN
                                     --                                         --
        PRECIPITATION =        1.4367D+07          PRECIPITATION =                  
           STREAMFLOW =                               STREAMFLOW =                  
     GW BOUNDARY FLOW =                         GW BOUNDARY FLOW =                  


                                    OUT                                        OUT
                                    ---                                        ---
   EVAPOTRANSPIRATION =        5139729.97     EVAPOTRANSPIRATION =          87428.11
           STREAMFLOW =        4040799.06             STREAMFLOW =          26842.25
     GW BOUNDARY FLOW =         113865.69       GW BOUNDARY FLOW =            651.46

   INFLOWS - OUTFLOWS =        5072350.80     INFLOWS - OUTFLOWS =        -114921.81
             --------                                   --------

 TOTAL STORAGE CHANGE =        5079911.44         STORAGE CHANGE =        -114925.49
       --------------                             --------------
         LAND SURFACE =        4477696.13           LAND SURFACE =         -65035.10
            SOIL ZONE =        2351079.81              SOIL ZONE =         -41078.55
     UNSATURATED ZONE =       -1057848.43       UNSATURATED ZONE =          -4273.04
       SATURATED ZONE =        -691016.07         SATURATED ZONE =          -4538.80

 OVERALL BUDGET ERROR =          -7560.64           BUDGET ERROR =              3.68


  PERCENT DISCREPANCY =             -0.05    PERCENT DISCREPANCY =              0.00



1
 SUMMARY VOLUMETRIC BUDGET FOR GSFLOW 
 DATE: 03 31 1981              CUMULATIVE TIME STEP:     182
 MODFLOW STRESS PERIOD      2     CURRENT TIME STEP:     182     ITERATIONS:      12

 -----------------------------------------------------------------------------------

   CUMULATIVE VOLUMES               L**3   RATES FOR THIS TIME STEP           L**3/T
   ------------------                      ------------------------

                                     IN                                         IN
                                     --                                         --
        PRECIPITATION =        1.5777D+07          PRECIPITATION =                  
           STREAMFLOW =                               STREAMFLOW =                  
     GW BOUNDARY FLOW =                         GW BOUNDARY FLOW =                  


                                    OUT                                        OUT
                                    ---                                        ---
   EVAPOTRANSPIRATION =        5569667.36     EVAPOTRANSPIRATION =          54090.27
           STREAMFLOW =        4550100.13             STREAMFLOW =          37150.26
     GW BOUNDARY FLOW =         118447.75       GW BOUNDARY FLOW =            653.61

   INFLOWS - OUTFLOWS =        5538532.74     INFLOWS - OUTFLOWS =         -91894.13
             --------                                   --------

 TOTAL STORAGE CHANGE =        5546037.81         STORAGE CHANGE =         -91917.67
       --------------                             --------------
         LAND SURFACE =        4494242.73           LAND SURFACE =         -55488.75
            SOIL ZONE =        2547520.63              SOIL ZONE =         -41753.80
     UNSATURATED ZONE =        -813367.65       UNSATURATED ZONE =           5958.36
       SATURATED ZONE =        -682357.90         SATURATED ZONE =           -633.47

 OVERALL BUDGET ERROR =          -7505.07           BUDGET ERROR =             23.53


  PERCENT DISCREPANCY =             -0.05    PERCENT DISCREPANCY =              0.03



1
 SUMMARY VOLUMETRIC BUDGET FOR GSFLOW 
 DATE: 04 07 1981              CUMULATIVE TIME STEP:     189
 MODFLOW STRESS PERIOD      2     CURRENT TIME STEP:     189     ITERATIONS:      10

 -----------------------------------------------------------------------------------

   CUMULATIVE VOLUMES               L**3   RATES FOR THIS TIME STEP           L**3/T
   ------------------                      ------------------------

                                     IN                                         IN
                                     --                                         --
        PRECIPITATION =        1.6121D+07          PRECIPITATION =                  
           STREAMFLOW =                               STREAMFLOW =                  
     GW BOUNDARY FLOW =                         GW BOUNDARY FLOW =                  


                                    OUT                                        OUT
                                    ---                                        ---
   EVAPOTRANSPIRATION =        6195733.60     EVAPOTRANSPIRATION =         103845.38
           STREAMFLOW =        4868712.65             STREAMFLOW =          43444.32
     GW BOUNDARY FLOW =         123023.09       GW BOUNDARY FLOW =            653.74

   INFLOWS - OUTFLOWS =        4933998.26     INFLOWS - OUTFLOWS =        -147943.44
             --------                                   --------

 TOTAL STORAGE CHANGE =        4941399.12         STORAGE CHANGE =        -147962.58
       --------------                             --------------
         LAND SURFACE =        3870170.37           LAND SURFACE =        -138668.80
            SOIL ZONE =        2478815.26              SOIL ZONE =         -20354.11
     UNSATURATED ZONE =        -729490.42       UNSATURATED ZONE =          10708.04
       SATURATED ZONE =        -678096.09         SATURATED ZONE =            352.28

 OVERALL BUDGET ERROR =          -7400.85           BUDGET ERROR =             19.14


  PERCENT DISCREPANCY =             -0.05    PERCENT DISCREPANCY =              0.01



1
 SUMMARY VOLUMETRIC BUDGET FOR GSFLOW 
 DATE: 04 14 1981              CUMULATIVE TIME STEP:     196
 MODFLOW STRESS PERIOD      2     CURRENT TIME STEP:     196     ITERATIONS:      13

 -----------------------------------------------------------------------------------

   CUMULATIVE VOLUMES               L**3   RATES FOR THIS TIME STEP           L**3/T
   ------------------                      ------------------------

                                     IN                                         IN
                                     --                                         --
        PRECIPITATION =        1.6121D+07          PRECIPITATION =                  
           STREAMFLOW =                               STREAMFLOW =                  
     GW BOUNDARY FLOW =                         GW BOUNDARY FLOW =                  


                                    OUT                                        OUT
                                    ---                                        ---
   EVAPOTRANSPIRATION =        7106423.12     EVAPOTRANSPIRATION =         191911.71
           STREAMFLOW =        5196242.75             STREAMFLOW =          55525.57
     GW BOUNDARY FLOW =         127598.52       GW BOUNDARY FLOW =            653.68

   INFLOWS - OUTFLOWS =        3691203.21     INFLOWS - OUTFLOWS =        -248090.96
             --------                                   --------

 TOTAL STORAGE CHANGE =        3698473.33         STORAGE CHANGE =        -248102.09
       --------------                             --------------
         LAND SURFACE =        2621455.97           LAND SURFACE =        -253007.68
            SOIL ZONE =        2387274.11              SOIL ZONE =         -16804.76
     UNSATURATED ZONE =        -639159.30       UNSATURATED ZONE =          19489.02
       SATURATED ZONE =        -671097.45         SATURATED ZONE =           2221.32

 OVERALL BUDGET ERROR =          -7270.12           BUDGET ERROR =             11.13


  PERCENT DISCREPANCY =             -0.05    PERCENT DISCREPANCY =              0.00



1
 SUMMARY VOLUMETRIC BUDGET FOR GSFLOW 
 DATE: 04 21 1981              CUMULATIVE TIME STEP:     203
 MODFLOW STRESS PERIOD      2     CURRENT TIME STEP:     203     ITERATIONS:      12

 -----------------------------------------------------------------------------------

   CUMULATIVE VOLUMES               L**3   RATES FOR THIS TIME STEP           L**3/T
   ------------------                      ------------------------

                                     IN                                         IN
                                     --                                         --
        PRECIPITATION =        1.6310D+07          PRECIPITATION =                  
           STREAMFLOW =                               STREAMFLOW =                  
     GW BOUNDARY FLOW =                         GW BOUNDARY FLOW =                  


                                    OUT                                        OUT
                                    ---                                        ---
   EVAPOTRANSPIRATION =        8178386.95     EVAPOTRANSPIRATION =         152247.85
           STREAMFLOW =        5535777.94             STREAMFLOW =          45835.12
     GW BOUNDARY FLOW =         132169.99       GW BOUNDARY FLOW =            652.64

   INFLOWS - OUTFLOWS =        2463907.76     INFLOWS - OUTFLOWS =        -198735.61
             --------                                   --------

 TOTAL STORAGE CHANGE =        2471046.88         STORAGE CHANGE =        -198764.61
       --------------                             --------------
         LAND SURFACE =        1440926.25           LAND SURFACE =        -121359.42
            SOIL ZONE =        2205497.90              SOIL ZONE =         -97184.16
     UNSATURATED ZONE =        -521975.69       UNSATURATED ZONE =          16838.84
       SATURATED ZONE =        -653401.57         SATURATED ZONE =           2940.14

 OVERALL BUDGET ERROR =          -7139.12           BUDGET ERROR =             29.00


  PERCENT DISCREPANCY =             -0.04    PERCENT DISCREPANCY =              0.01



1
 SUMMARY VOLUMETRIC BUDGET FOR GSFLOW 
 DATE: 04 28 1981              CUMULATIVE TIME STEP:     210
 MODFLOW STRESS PERIOD      2     CURRENT TIME STEP:     210     ITERATIONS:      14

 -----------------------------------------------------------------------------------

   CUMULATIVE VOLUMES               L**3   RATES FOR THIS TIME STEP           L**3/T
   ------------------                      ------------------------

                                     IN                                         IN
                                     --                                         --
        PRECIPITATION =        1.6515D+07          PRECIPITATION =                  
           STREAMFLOW =                               STREAMFLOW =                  
     GW BOUNDARY FLOW =                         GW BOUNDARY FLOW =                  


                                    OUT                                        OUT
                                    ---                                        ---
   EVAPOTRANSPIRATION =        9416883.29     EVAPOTRANSPIRATION =         200405.69
           STREAMFLOW =        5748134.12             STREAMFLOW =          24699.26
     GW BOUNDARY FLOW =         136729.49       GW BOUNDARY FLOW =            650.47

   INFLOWS - OUTFLOWS =        1213685.99     INFLOWS - OUTFLOWS =        -225755.42
             --------                                   --------

 TOTAL STORAGE CHANGE =        1220717.40         STORAGE CHANGE =        -225768.55
       --------------                             --------------
         LAND SURFACE =         691530.96           LAND SURFACE =         -83509.90
            SOIL ZONE =        1695320.23              SOIL ZONE =        -138438.09
     UNSATURATED ZONE =        -520669.43       UNSATURATED ZONE =          -4116.68
       SATURATED ZONE =        -645464.35         SATURATED ZONE =            296.12

 OVERALL BUDGET ERROR =          -7031.41           BUDGET ERROR =             13.13


  PERCENT DISCREPANCY =             -0.04    PERCENT DISCREPANCY =              0.01



1
 SUMMARY VOLUMETRIC BUDGET FOR GSFLOW 
 DATE: 05 05 1981              CUMULATIVE TIME STEP:     217
 MODFLOW STRESS PERIOD      2     CURRENT TIME STEP:     217     ITERATIONS:      13

 -----------------------------------------------------------------------------------

   CUMULATIVE VOLUMES               L**3   RATES FOR THIS TIME STEP           L**3/T
   ------------------                      ------------------------

                                     IN                                         IN
                                     --                                         --
        PRECIPITATION =        1.6515D+07          PRECIPITATION =                  
           STREAMFLOW =                               STREAMFLOW =                  
     GW BOUNDARY FLOW =                         GW BOUNDARY FLOW =                  


                                    OUT                                        OUT
                                    ---                                        ---
   EVAPOTRANSPIRATION =        1.0268D+07     EVAPOTRANSPIRATION =          47821.04
           STREAMFLOW =        5854168.40             STREAMFLOW =          10871.48
     GW BOUNDARY FLOW =         141275.92       GW BOUNDARY FLOW =            648.80

   INFLOWS - OUTFLOWS =         252297.04     INFLOWS - OUTFLOWS =         -59341.33
             --------                                   --------

 TOTAL STORAGE CHANGE =         259265.01         STORAGE CHANGE =         -59345.89
       --------------                             --------------
         LAND SURFACE =         347350.76           LAND SURFACE =         -17502.06
            SOIL ZONE =        1187480.36              SOIL ZONE =         -23028.57
     UNSATURATED ZONE =        -617148.52       UNSATURATED ZONE =         -15761.83
       SATURATED ZONE =        -658417.59         SATURATED ZONE =          -3053.43

 OVERALL BUDGET ERROR =          -6967.97           BUDGET ERROR =              4.56


  PERCENT DISCREPANCY =             -0.04    PERCENT DISCREPANCY =              0.01



1
 SUMMARY VOLUMETRIC BUDGET FOR GSFLOW 
 DATE: 05 12 1981              CUMULATIVE TIME STEP:     224
 MODFLOW STRESS PERIOD      2     CURRENT TIME STEP:     224     ITERATIONS:      18

 -----------------------------------------------------------------------------------

   CUMULATIVE VOLUMES               L**3   RATES FOR THIS TIME STEP           L**3/T
   ------------------                      ------------------------

                                     IN                                         IN
                                     --                                         --
        PRECIPITATION =        1.6515D+07          PRECIPITATION =                  
           STREAMFLOW =                               STREAMFLOW =                  
     GW BOUNDARY FLOW =                         GW BOUNDARY FLOW =                  


                                    OUT                                        OUT
                                    ---                                        ---
   EVAPOTRANSPIRATION =        1.0759D+07     EVAPOTRANSPIRATION =          90819.23
           STREAMFLOW =        5925312.51             STREAMFLOW =          10488.58
     GW BOUNDARY FLOW =         145814.60       GW BOUNDARY FLOW =            648.22

   INFLOWS - OUTFLOWS =        -314556.14     INFLOWS - OUTFLOWS =        -101956.02
             --------                                   --------

 TOTAL STORAGE CHANGE =        -307591.04         STORAGE CHANGE =        -101951.08
       --------------                             --------------
         LAND SURFACE =         198678.97           LAND SURFACE =         -25500.84
            SOIL ZONE =         903948.03              SOIL ZONE =         -57629.51
     UNSATURATED ZONE =        -722173.37       UNSATURATED ZONE =         -13422.83
       SATURATED ZONE =        -688044.67         SATURATED ZONE =          -5397.90

 OVERALL BUDGET ERROR =          -6965.10           BUDGET ERROR =             -4.94


  PERCENT DISCREPANCY =             -0.04    PERCENT DISCREPANCY =             -0.00



1
 SUMMARY VOLUMETRIC BUDGET FOR GSFLOW 
 DATE: 05 19 1981              CUMULATIVE TIME STEP:     231
 MODFLOW STRESS PERIOD      2     CURRENT TIME STEP:     231     ITERATIONS:      17

 -----------------------------------------------------------------------------------

   CUMULATIVE VOLUMES               L**3   RATES FOR THIS TIME STEP           L**3/T
   ------------------                      ------------------------

                                     IN                                         IN
                                     --                                         --
        PRECIPITATION =        1.7837D+07          PRECIPITATION =         169045.43
           STREAMFLOW =                               STREAMFLOW =                  
     GW BOUNDARY FLOW =                         GW BOUNDARY FLOW =                  


                                    OUT                                        OUT
                                    ---                                        ---
   EVAPOTRANSPIRATION =        1.1102D+07     EVAPOTRANSPIRATION =          32129.65
           STREAMFLOW =        6056455.09             STREAMFLOW =          27356.13
     GW BOUNDARY FLOW =         150354.13       GW BOUNDARY FLOW =            649.57

   INFLOWS - OUTFLOWS =         528008.12     INFLOWS - OUTFLOWS =         108910.07
             --------                                   --------

 TOTAL STORAGE CHANGE =         534979.65         STORAGE CHANGE =         108916.27
       --------------                             --------------
         LAND SURFACE =         167097.84           LAND SURFACE =           4534.24
            SOIL ZONE =        1884672.83              SOIL ZONE =         110155.15
     UNSATURATED ZONE =        -789796.72       UNSATURATED ZONE =           -534.31
       SATURATED ZONE =        -726994.31         SATURATED ZONE =          -5238.81

 OVERALL BUDGET ERROR =          -6971.52           BUDGET ERROR =             -6.20


  PERCENT DISCREPANCY =             -0.04    PERCENT DISCREPANCY =             -0.00



1
 SUMMARY VOLUMETRIC BUDGET FOR GSFLOW 
 DATE: 05 26 1981              CUMULATIVE TIME STEP:     238
 MODFLOW STRESS PERIOD      2     CURRENT TIME STEP:     238     ITERATIONS:      13

 -----------------------------------------------------------------------------------

   CUMULATIVE VOLUMES               L**3   RATES FOR THIS TIME STEP           L**3/T
   ------------------                      ------------------------

                                     IN                                         IN
                                     --                                         --
        PRECIPITATION =        1.8252D+07          PRECIPITATION =         284303.67
           STREAMFLOW =                               STREAMFLOW =                  
     GW BOUNDARY FLOW =                         GW BOUNDARY FLOW =                  


                                    OUT                                        OUT
                                    ---                                        ---
   EVAPOTRANSPIRATION =        1.1924D+07     EVAPOTRANSPIRATION =         132233.27
           STREAMFLOW =        6170016.07             STREAMFLOW =          19495.87
     GW BOUNDARY FLOW =         154895.60       GW BOUNDARY FLOW =            648.54

   INFLOWS - OUTFLOWS =           3270.14     INFLOWS - OUTFLOWS =         131925.99
             --------                                   --------

 TOTAL STORAGE CHANGE =          10251.52         STORAGE CHANGE =         131931.87
       --------------                             --------------
         LAND SURFACE =          96880.50           LAND SURFACE =          -7049.94
            SOIL ZONE =        1534294.76              SOIL ZONE =         156321.87
     UNSATURATED ZONE =        -846862.04       UNSATURATED ZONE =         -10694.99
       SATURATED ZONE =        -774061.69         SATURATED ZONE =          -6645.06

 OVERALL BUDGET ERROR =          -6981.38           BUDGET ERROR =             -5.88


  PERCENT DISCREPANCY =             -0.04    PERCENT DISCREPANCY =             -0.00



1
 SUMMARY VOLUMETRIC BUDGET FOR GSFLOW 
 DATE: 06 02 1981              CUMULATIVE TIME STEP:     245
 MODFLOW STRESS PERIOD      2     CURRENT TIME STEP:     245     ITERATIONS:      14

 -----------------------------------------------------------------------------------

   CUMULATIVE VOLUMES               L**3   RATES FOR THIS TIME STEP           L**3/T
   ------------------                      ------------------------

                                     IN                                         IN
                                     --                                         --
        PRECIPITATION =        1.8318D+07          PRECIPITATION =          50869.96
           STREAMFLOW =                               STREAMFLOW =                  
     GW BOUNDARY FLOW =                         GW BOUNDARY FLOW =                  


                                    OUT                                        OUT
                                    ---                                        ---
   EVAPOTRANSPIRATION =        1.2720D+07     EVAPOTRANSPIRATION =          69334.96
           STREAMFLOW =        6240836.28             STREAMFLOW =           7792.43
     GW BOUNDARY FLOW =         159430.94       GW BOUNDARY FLOW =            647.45

   INFLOWS - OUTFLOWS =        -802478.57     INFLOWS - OUTFLOWS =         -26904.87
             --------                                   --------

 TOTAL STORAGE CHANGE =        -795475.66         STORAGE CHANGE =         -26894.69
       --------------                             --------------
         LAND SURFACE =          61812.20           LAND SURFACE =          30830.75
            SOIL ZONE =         908197.20              SOIL ZONE =         -35679.26
     UNSATURATED ZONE =        -934820.99       UNSATURATED ZONE =         -13672.18
       SATURATED ZONE =        -830664.07         SATURATED ZONE =          -8374.00

 OVERALL BUDGET ERROR =          -7002.91           BUDGET ERROR =            -10.18


  PERCENT DISCREPANCY =             -0.04    PERCENT DISCREPANCY =             -0.01



1
 SUMMARY VOLUMETRIC BUDGET FOR GSFLOW 
 DATE: 06 09 1981              CUMULATIVE TIME STEP:     252
 MODFLOW STRESS PERIOD      2     CURRENT TIME STEP:     252     ITERATIONS:      13

 -----------------------------------------------------------------------------------

   CUMULATIVE VOLUMES               L**3   RATES FOR THIS TIME STEP           L**3/T
   ------------------                      ------------------------

                                     IN                                         IN
                                     --                                         --
        PRECIPITATION =        1.8318D+07          PRECIPITATION =                  
           STREAMFLOW =                               STREAMFLOW =                  
     GW BOUNDARY FLOW =                         GW BOUNDARY FLOW =                  


                                    OUT                                        OUT
                                    ---                                        ---
   EVAPOTRANSPIRATION =        1.3216D+07     EVAPOTRANSPIRATION =          51758.82
           STREAMFLOW =        6288716.18             STREAMFLOW =           6433.63
     GW BOUNDARY FLOW =         163960.88       GW BOUNDARY FLOW =            646.96

   INFLOWS - OUTFLOWS =       -1350475.35     INFLOWS - OUTFLOWS =         -58839.41
             --------                                   --------

 TOTAL STORAGE CHANGE =       -1343442.88         STORAGE CHANGE =         -58831.99
       --------------                             --------------
         LAND SURFACE =           8252.08           LAND SURFACE =          -1595.17
            SOIL ZONE =         569181.08              SOIL ZONE =         -35005.34
     UNSATURATED ZONE =       -1028942.30       UNSATURATED ZONE =         -13320.06
       SATURATED ZONE =        -891933.74         SATURATED ZONE =          -8911.42

 OVERALL BUDGET ERROR =          -7032.47           BUDGET ERROR =             -7.42


  PERCENT DISCREPANCY =             -0.04    PERCENT DISCREPANCY =             -0.01



1
 SUMMARY VOLUMETRIC BUDGET FOR GSFLOW 
 DATE: 06 16 1981              CUMULATIVE TIME STEP:     259
 MODFLOW STRESS PERIOD      2     CURRENT TIME STEP:     259     ITERATIONS:      17

 -----------------------------------------------------------------------------------

   CUMULATIVE VOLUMES               L**3   RATES FOR THIS TIME STEP           L**3/T
   ------------------                      ------------------------

                                     IN                                         IN
                                     --                                         --
        PRECIPITATION =        1.8318D+07          PRECIPITATION =                  
           STREAMFLOW =                               STREAMFLOW =                  
     GW BOUNDARY FLOW =                         GW BOUNDARY FLOW =                  


                                    OUT                                        OUT
                                    ---                                        ---
   EVAPOTRANSPIRATION =        1.3408D+07     EVAPOTRANSPIRATION =          45426.26
           STREAMFLOW =        6332450.95             STREAMFLOW =           6177.34
     GW BOUNDARY FLOW =         168488.70       GW BOUNDARY FLOW =            646.75

   INFLOWS - OUTFLOWS =       -1591080.02     INFLOWS - OUTFLOWS =         -52250.35
             --------                                   --------

 TOTAL STORAGE CHANGE =       -1584018.94         STORAGE CHANGE =         -52242.36
       --------------                             --------------
         LAND SURFACE =           3425.60           LAND SURFACE =           -943.52
            SOIL ZONE =         487787.34              SOIL ZONE =         -29390.10
     UNSATURATED ZONE =       -1120038.45       UNSATURATED ZONE =         -12777.65
       SATURATED ZONE =        -955193.43         SATURATED ZONE =          -9131.09

 OVERALL BUDGET ERROR =          -7061.08           BUDGET ERROR =             -7.99


  PERCENT DISCREPANCY =             -0.04    PERCENT DISCREPANCY =             -0.02



1
 SUMMARY VOLUMETRIC BUDGET FOR GSFLOW 
 DATE: 06 23 1981              CUMULATIVE TIME STEP:     266
 MODFLOW STRESS PERIOD      2     CURRENT TIME STEP:     266     ITERATIONS:      14

 -----------------------------------------------------------------------------------

   CUMULATIVE VOLUMES               L**3   RATES FOR THIS TIME STEP           L**3/T
   ------------------                      ------------------------

                                     IN                                         IN
                                     --                                         --
        PRECIPITATION =        1.8318D+07          PRECIPITATION =                  
           STREAMFLOW =                               STREAMFLOW =                  
     GW BOUNDARY FLOW =                         GW BOUNDARY FLOW =                  


                                    OUT                                        OUT
                                    ---                                        ---
   EVAPOTRANSPIRATION =        1.3708D+07     EVAPOTRANSPIRATION =          34948.12
           STREAMFLOW =        6374640.26             STREAMFLOW =           5948.43
     GW BOUNDARY FLOW =         173015.22       GW BOUNDARY FLOW =            646.57

   INFLOWS - OUTFLOWS =       -1937084.99     INFLOWS - OUTFLOWS =         -41543.13
             --------                                   --------

 TOTAL STORAGE CHANGE =       -1930010.98         STORAGE CHANGE =         -41537.67
       --------------                             --------------
         LAND SURFACE =                             LAND SURFACE =                  
            SOIL ZONE =         297456.33              SOIL ZONE =         -19913.26
     UNSATURATED ZONE =       -1205971.40       UNSATURATED ZONE =         -11812.09
       SATURATED ZONE =       -1021495.91         SATURATED ZONE =          -9812.33

 OVERALL BUDGET ERROR =          -7074.01           BUDGET ERROR =             -5.45


  PERCENT DISCREPANCY =             -0.03    PERCENT DISCREPANCY =             -0.01



1
 SUMMARY VOLUMETRIC BUDGET FOR GSFLOW 
 DATE: 06 30 1981              CUMULATIVE TIME STEP:     273
 MODFLOW STRESS PERIOD      2     CURRENT TIME STEP:     273     ITERATIONS:       9

 -----------------------------------------------------------------------------------

   CUMULATIVE VOLUMES               L**3   RATES FOR THIS TIME STEP           L**3/T
   ------------------                      ------------------------

                                     IN                                         IN
[...]
   ------------------                      ------------------------

                                     IN                                         IN
                                     --                                         --
        PRECIPITATION =        4.6511D+08          PRECIPITATION =                  
           STREAMFLOW =                               STREAMFLOW =                  
     GW BOUNDARY FLOW =                         GW BOUNDARY FLOW =                  


                                    OUT                                        OUT
                                    ---                                        ---
   EVAPOTRANSPIRATION =        2.8377D+08     EVAPOTRANSPIRATION =          30206.99
           STREAMFLOW =        1.8523D+08             STREAMFLOW =           6869.70
     GW BOUNDARY FLOW =        3740935.90       GW BOUNDARY FLOW =            650.46

   INFLOWS - OUTFLOWS =       -7636240.35     INFLOWS - OUTFLOWS =         -37727.15
             --------                                   --------

 TOTAL STORAGE CHANGE =       -7535352.68         STORAGE CHANGE =         -37756.13
       --------------                             --------------
         LAND SURFACE =          55405.90           LAND SURFACE =          -3487.93
            SOIL ZONE =         184091.18              SOIL ZONE =         -12900.58
     UNSATURATED ZONE =        4914483.83       UNSATURATED ZONE =         -26908.48
       SATURATED ZONE =       -1.2689D+07         SATURATED ZONE =           5540.86

 OVERALL BUDGET ERROR =        -100887.66           BUDGET ERROR =             28.98


  PERCENT DISCREPANCY =             -0.02    PERCENT DISCREPANCY =              0.08



1
 SUMMARY VOLUMETRIC BUDGET FOR GSFLOW 
 DATE: 08 06 1996              CUMULATIVE TIME STEP:    5789
 MODFLOW STRESS PERIOD      2     CURRENT TIME STEP:    5789     ITERATIONS:      15

 -----------------------------------------------------------------------------------

   CUMULATIVE VOLUMES               L**3   RATES FOR THIS TIME STEP           L**3/T
   ------------------                      ------------------------

                                     IN                                         IN
                                     --                                         --
        PRECIPITATION =        4.6511D+08          PRECIPITATION =                  
           STREAMFLOW =                               STREAMFLOW =                  
     GW BOUNDARY FLOW =                         GW BOUNDARY FLOW =                  


                                    OUT                                        OUT
                                    ---                                        ---
   EVAPOTRANSPIRATION =        2.8392D+08     EVAPOTRANSPIRATION =          19826.48
           STREAMFLOW =        1.8528D+08             STREAMFLOW =           6660.81
     GW BOUNDARY FLOW =        3745488.91       GW BOUNDARY FLOW =            650.38

   INFLOWS - OUTFLOWS =       -7833063.61     INFLOWS - OUTFLOWS =         -27137.67
             --------                                   --------

 TOTAL STORAGE CHANGE =       -7732300.60         STORAGE CHANGE =         -27152.30
       --------------                             --------------
         LAND SURFACE =          37062.04           LAND SURFACE =          -2253.66
            SOIL ZONE =         153734.06              SOIL ZONE =          -3855.40
     UNSATURATED ZONE =        4729390.77       UNSATURATED ZONE =         -25988.40
       SATURATED ZONE =       -1.2652D+07         SATURATED ZONE =           4945.16

 OVERALL BUDGET ERROR =        -100763.01           BUDGET ERROR =             14.63


  PERCENT DISCREPANCY =             -0.02    PERCENT DISCREPANCY =              0.05



1
 SUMMARY VOLUMETRIC BUDGET FOR GSFLOW 
 DATE: 08 13 1996              CUMULATIVE TIME STEP:    5796
 MODFLOW STRESS PERIOD      2     CURRENT TIME STEP:    5796     ITERATIONS:      14

 -----------------------------------------------------------------------------------

   CUMULATIVE VOLUMES               L**3   RATES FOR THIS TIME STEP           L**3/T
   ------------------                      ------------------------

                                     IN                                         IN
                                     --                                         --
        PRECIPITATION =        4.6531D+08          PRECIPITATION =          54454.08
           STREAMFLOW =                               STREAMFLOW =                  
     GW BOUNDARY FLOW =                         GW BOUNDARY FLOW =                  


                                    OUT                                        OUT
                                    ---                                        ---
   EVAPOTRANSPIRATION =        2.8409D+08     EVAPOTRANSPIRATION =          29381.15
           STREAMFLOW =        1.8533D+08             STREAMFLOW =           7873.85
     GW BOUNDARY FLOW =        3750041.12       GW BOUNDARY FLOW =            650.33

   INFLOWS - OUTFLOWS =       -7860317.11     INFLOWS - OUTFLOWS =          16548.76
             --------                                   --------

 TOTAL STORAGE CHANGE =       -7759636.99         STORAGE CHANGE =          16536.78
       --------------                             --------------
         LAND SURFACE =          53162.52           LAND SURFACE =          -2312.39
            SOIL ZONE =         256095.18              SOIL ZONE =          39491.48
     UNSATURATED ZONE =        4553977.05       UNSATURATED ZONE =         -24437.03
       SATURATED ZONE =       -1.2623D+07         SATURATED ZONE =           3794.71

 OVERALL BUDGET ERROR =        -100680.12           BUDGET ERROR =             11.98


  PERCENT DISCREPANCY =             -0.02    PERCENT DISCREPANCY =              0.02



1
 SUMMARY VOLUMETRIC BUDGET FOR GSFLOW 
 DATE: 08 20 1996              CUMULATIVE TIME STEP:    5803
 MODFLOW STRESS PERIOD      2     CURRENT TIME STEP:    5803     ITERATIONS:      14

 -----------------------------------------------------------------------------------

   CUMULATIVE VOLUMES               L**3   RATES FOR THIS TIME STEP           L**3/T
   ------------------                      ------------------------

                                     IN                                         IN
                                     --                                         --
        PRECIPITATION =        4.6531D+08          PRECIPITATION =                  
           STREAMFLOW =                               STREAMFLOW =                  
     GW BOUNDARY FLOW =                         GW BOUNDARY FLOW =                  


                                    OUT                                        OUT
                                    ---                                        ---
   EVAPOTRANSPIRATION =        2.8429D+08     EVAPOTRANSPIRATION =          19354.48
           STREAMFLOW =        1.8538D+08             STREAMFLOW =           6462.83
     GW BOUNDARY FLOW =        3754591.80       GW BOUNDARY FLOW =            649.92

   INFLOWS - OUTFLOWS =       -8111055.58     INFLOWS - OUTFLOWS =         -26467.24
             --------                                   --------

 TOTAL STORAGE CHANGE =       -8010473.65         STORAGE CHANGE =         -26479.37
       --------------                             --------------
         LAND SURFACE =           6921.38           LAND SURFACE =          -1297.31
            SOIL ZONE =         195808.21              SOIL ZONE =          -4677.69
     UNSATURATED ZONE =        4386933.93       UNSATURATED ZONE =         -23350.67
       SATURATED ZONE =       -1.2600D+07         SATURATED ZONE =           2846.30

 OVERALL BUDGET ERROR =        -100581.93           BUDGET ERROR =             12.14


  PERCENT DISCREPANCY =             -0.02    PERCENT DISCREPANCY =              0.05



1
 SUMMARY VOLUMETRIC BUDGET FOR GSFLOW 
 DATE: 08 27 1996              CUMULATIVE TIME STEP:    5810
 MODFLOW STRESS PERIOD      2     CURRENT TIME STEP:    5810     ITERATIONS:      12

 -----------------------------------------------------------------------------------

   CUMULATIVE VOLUMES               L**3   RATES FOR THIS TIME STEP           L**3/T
   ------------------                      ------------------------

                                     IN                                         IN
                                     --                                         --
        PRECIPITATION =        4.6531D+08          PRECIPITATION =                  
           STREAMFLOW =                               STREAMFLOW =                  
     GW BOUNDARY FLOW =                         GW BOUNDARY FLOW =                  


                                    OUT                                        OUT
                                    ---                                        ---
   EVAPOTRANSPIRATION =        2.8443D+08     EVAPOTRANSPIRATION =          15485.51
           STREAMFLOW =        1.8542D+08             STREAMFLOW =           6300.95
     GW BOUNDARY FLOW =        3759139.75       GW BOUNDARY FLOW =            649.54

   INFLOWS - OUTFLOWS =       -8300354.43     INFLOWS - OUTFLOWS =         -22436.01
             --------                                   --------

 TOTAL STORAGE CHANGE =       -8199921.42         STORAGE CHANGE =         -22465.83
       --------------                             --------------
         LAND SURFACE =           1243.96           LAND SURFACE =           -271.65
            SOIL ZONE =         154622.44              SOIL ZONE =          -1921.82
     UNSATURATED ZONE =        4227903.47       UNSATURATED ZONE =         -22193.83
       SATURATED ZONE =       -1.2584D+07         SATURATED ZONE =           1921.47

 OVERALL BUDGET ERROR =        -100433.01           BUDGET ERROR =             29.82


  PERCENT DISCREPANCY =             -0.02    PERCENT DISCREPANCY =              0.13



1
 SUMMARY VOLUMETRIC BUDGET FOR GSFLOW 
 DATE: 09 03 1996              CUMULATIVE TIME STEP:    5817
 MODFLOW STRESS PERIOD      2     CURRENT TIME STEP:    5817     ITERATIONS:      12

 -----------------------------------------------------------------------------------

   CUMULATIVE VOLUMES               L**3   RATES FOR THIS TIME STEP           L**3/T
   ------------------                      ------------------------

                                     IN                                         IN
                                     --                                         --
        PRECIPITATION =        4.6531D+08          PRECIPITATION =                  
           STREAMFLOW =                               STREAMFLOW =                  
     GW BOUNDARY FLOW =                         GW BOUNDARY FLOW =                  


                                    OUT                                        OUT
                                    ---                                        ---
   EVAPOTRANSPIRATION =        2.8454D+08     EVAPOTRANSPIRATION =          12838.71
           STREAMFLOW =        1.8546D+08             STREAMFLOW =           6196.13
     GW BOUNDARY FLOW =        3763684.93       GW BOUNDARY FLOW =            649.14

   INFLOWS - OUTFLOWS =       -8455839.85     INFLOWS - OUTFLOWS =         -19683.98
             --------                                   --------

 TOTAL STORAGE CHANGE =       -8355578.81         STORAGE CHANGE =         -19714.96
       --------------                             --------------
         LAND SURFACE =            583.76           LAND SURFACE =            -75.05
            SOIL ZONE =         140562.87              SOIL ZONE =            402.13
     UNSATURATED ZONE =        4072990.57       UNSATURATED ZONE =         -22052.48
       SATURATED ZONE =       -1.2570D+07         SATURATED ZONE =           2010.44

 OVERALL BUDGET ERROR =        -100261.03           BUDGET ERROR =             30.98


  PERCENT DISCREPANCY =             -0.02    PERCENT DISCREPANCY =              0.16



1
 SUMMARY VOLUMETRIC BUDGET FOR GSFLOW 
 DATE: 09 10 1996              CUMULATIVE TIME STEP:    5824
 MODFLOW STRESS PERIOD      2     CURRENT TIME STEP:    5824     ITERATIONS:      12

 -----------------------------------------------------------------------------------

   CUMULATIVE VOLUMES               L**3   RATES FOR THIS TIME STEP           L**3/T
   ------------------                      ------------------------

                                     IN                                         IN
                                     --                                         --
        PRECIPITATION =        4.6531D+08          PRECIPITATION =                  
           STREAMFLOW =                               STREAMFLOW =                  
     GW BOUNDARY FLOW =                         GW BOUNDARY FLOW =                  


                                    OUT                                        OUT
                                    ---                                        ---
   EVAPOTRANSPIRATION =        2.8463D+08     EVAPOTRANSPIRATION =          13260.65
           STREAMFLOW =        1.8551D+08             STREAMFLOW =           6104.03
     GW BOUNDARY FLOW =        3768227.37       GW BOUNDARY FLOW =            648.75

   INFLOWS - OUTFLOWS =       -8588650.99     INFLOWS - OUTFLOWS =         -20013.43
             --------                                   --------

 TOTAL STORAGE CHANGE =       -8488569.02         STORAGE CHANGE =         -20042.92
       --------------                             --------------
         LAND SURFACE =            141.35           LAND SURFACE =            -69.28
            SOIL ZONE =         147399.49              SOIL ZONE =           -150.80
     UNSATURATED ZONE =        3923772.93       UNSATURATED ZONE =         -20839.85
       SATURATED ZONE =       -1.2560D+07         SATURATED ZONE =           1017.02

 OVERALL BUDGET ERROR =        -100081.97           BUDGET ERROR =             29.49


  PERCENT DISCREPANCY =             -0.02    PERCENT DISCREPANCY =              0.15



1
 SUMMARY VOLUMETRIC BUDGET FOR GSFLOW 
 DATE: 09 17 1996              CUMULATIVE TIME STEP:    5831
 MODFLOW STRESS PERIOD      2     CURRENT TIME STEP:    5831     ITERATIONS:      12

 -----------------------------------------------------------------------------------

   CUMULATIVE VOLUMES               L**3   RATES FOR THIS TIME STEP           L**3/T
   ------------------                      ------------------------

                                     IN                                         IN
                                     --                                         --
        PRECIPITATION =        4.6637D+08          PRECIPITATION =                  
           STREAMFLOW =                               STREAMFLOW =                  
     GW BOUNDARY FLOW =                         GW BOUNDARY FLOW =                  


                                    OUT                                        OUT
                                    ---                                        ---
   EVAPOTRANSPIRATION =        2.8480D+08     EVAPOTRANSPIRATION =          58054.02
           STREAMFLOW =        1.8557D+08             STREAMFLOW =          10261.72
     GW BOUNDARY FLOW =        3772768.98       GW BOUNDARY FLOW =            649.14

   INFLOWS - OUTFLOWS =       -7783328.35     INFLOWS - OUTFLOWS =         -68964.88
             --------                                   --------

 TOTAL STORAGE CHANGE =       -7683505.66         STORAGE CHANGE =         -68996.95
       --------------                             --------------
         LAND SURFACE =           3348.24           LAND SURFACE =         -35098.95
            SOIL ZONE =        1085130.49              SOIL ZONE =         -14281.70
     UNSATURATED ZONE =        3782182.98       UNSATURATED ZONE =         -19814.77
       SATURATED ZONE =       -1.2554D+07         SATURATED ZONE =            198.47

 OVERALL BUDGET ERROR =         -99822.69           BUDGET ERROR =             32.06


  PERCENT DISCREPANCY =             -0.02    PERCENT DISCREPANCY =              0.05



1
 SUMMARY VOLUMETRIC BUDGET FOR GSFLOW 
 DATE: 09 24 1996              CUMULATIVE TIME STEP:    5838
 MODFLOW STRESS PERIOD      2     CURRENT TIME STEP:    5838     ITERATIONS:      16

 -----------------------------------------------------------------------------------

   CUMULATIVE VOLUMES               L**3   RATES FOR THIS TIME STEP           L**3/T
   ------------------                      ------------------------

                                     IN                                         IN
                                     --                                         --
        PRECIPITATION =        4.6637D+08          PRECIPITATION =                  
           STREAMFLOW =                               STREAMFLOW =                  
     GW BOUNDARY FLOW =                         GW BOUNDARY FLOW =                  


                                    OUT                                        OUT
                                    ---                                        ---
   EVAPOTRANSPIRATION =        2.8527D+08     EVAPOTRANSPIRATION =          54069.64
           STREAMFLOW =        1.8563D+08             STREAMFLOW =           6704.54
     GW BOUNDARY FLOW =        3777308.99       GW BOUNDARY FLOW =            648.23

   INFLOWS - OUTFLOWS =       -8304250.04     INFLOWS - OUTFLOWS =         -61422.42
             --------                                   --------

 TOTAL STORAGE CHANGE =       -8204569.47         STORAGE CHANGE =         -61417.75
       --------------                             --------------
         LAND SURFACE =                             LAND SURFACE =                  
            SOIL ZONE =         703932.68              SOIL ZONE =         -42023.20
     UNSATURATED ZONE =        3645819.85       UNSATURATED ZONE =         -19195.34
       SATURATED ZONE =       -1.2554D+07         SATURATED ZONE =           -199.21

 OVERALL BUDGET ERROR =         -99680.56           BUDGET ERROR =             -4.66


  PERCENT DISCREPANCY =             -0.02    PERCENT DISCREPANCY =             -0.01



 Number of time steps:   5844;  Number of non-convergence:   0
 MF iterations:         64611;  SZ iterations:           64543
 Average MF iterations: 11.06;  Average SZ iterations:   11.04
 Maximum MF iterations:    34;  Maximum SZ iterations:      25

mxsziter reached: 15

MF iteration distribution:      0    0    0   37  356  443  808  526  384  424
                              468  406  354  400  315  179  112  122  128  163
                              105   70   23    5    1    3    1    1    2    3
                                1    2    1    1    0    0    0    0    0    0
                                0    0    0    0    0    0    0    0    0    0
                                0    0    0    0    0    0    0    0    0    0
                                0    0    0    0    0    0    0    0    0    0
                                0    0    0    0    0    0    0    0    0    0

SZ computation distribution:    0    0    0   37  356  443  808  526  384  424
                              468  406  354  400  315  179  112  122  128  163
                              105   70   23    5   16    0    0    0    0    0
                                0    0    0    0    0    0    0    0    0    0
                                0    0    0    0    0    0    0    0    0    0
                                0    0    0    0    0    0    0    0    0    0
                                0    0    0    0    0    0    0    0    0    0
                                0    0    0    0    0    0    0    0    0    0

