1
 SUMMARY VOLUMETRIC BUDGET FOR GSFLOW 
 DATE: 10 07 1980              CUMULATIVE TIME STEP:       7
 MODFLOW STRESS PERIOD      2     CURRENT TIME STEP:       7     ITERATIONS:       6

 -----------------------------------------------------------------------------------

   CUMULATIVE VOLUMES               L**3   RATES FOR THIS TIME STEP           L**3/T
   ------------------                      ------------------------

                                     IN                                         IN
                                     --                                         --
        PRECIPITATION =                            PRECIPITATION =                  
           STREAMFLOW =                               STREAMFLOW =                  
     GW BOUNDARY FLOW =                         GW BOUNDARY FLOW =                  


                                    OUT                                        OUT
                                    ---                                        ---
   EVAPOTRANSPIRATION =          63501.87     EVAPOTRANSPIRATION =           9679.38
           STREAMFLOW =          42957.63             STREAMFLOW =           6065.77
     GW BOUNDARY FLOW =           4541.44       GW BOUNDARY FLOW =            648.70

   INFLOWS - OUTFLOWS =        -111000.94     INFLOWS - OUTFLOWS =         -16393.85
             --------                                   --------

 TOTAL STORAGE CHANGE =        -110545.15         STORAGE CHANGE =         -16325.53
       --------------                             --------------
         LAND SURFACE =                             LAND SURFACE =                  
            SOIL ZONE =          47015.18              SOIL ZONE =           6017.04
     UNSATURATED ZONE =        -144777.37       UNSATURATED ZONE =         -20360.11
       SATURATED ZONE =         -12782.96         SATURATED ZONE =          -1982.46

 OVERALL BUDGET ERROR =           -455.78           BUDGET ERROR =            -68.32


  PERCENT DISCREPANCY =             -0.41    PERCENT DISCREPANCY =             -0.42



1
 SUMMARY VOLUMETRIC BUDGET FOR GSFLOW 
 DATE: 10 14 1980              CUMULATIVE TIME STEP:      14
 MODFLOW STRESS PERIOD      2     CURRENT TIME STEP:      14     ITERATIONS:       6

 -----------------------------------------------------------------------------------

   CUMULATIVE VOLUMES               L**3   RATES FOR THIS TIME STEP           L**3/T
   ------------------                      ------------------------

                                     IN                                         IN
                                     --                                         --
        PRECIPITATION =         650779.83          PRECIPITATION =         164754.40
           STREAMFLOW =                               STREAMFLOW =                  
     GW BOUNDARY FLOW =                         GW BOUNDARY FLOW =                  


                                    OUT                                        OUT
                                    ---                                        ---
   EVAPOTRANSPIRATION =         147658.87     EVAPOTRANSPIRATION =           7975.53
           STREAMFLOW =          92677.70             STREAMFLOW =           7494.65
     GW BOUNDARY FLOW =           9082.78       GW BOUNDARY FLOW =            648.89

   INFLOWS - OUTFLOWS =         401360.49     INFLOWS - OUTFLOWS =         148635.32
             --------                                   --------

 TOTAL STORAGE CHANGE =         402331.01         STORAGE CHANGE =         148709.32
       --------------                             --------------
         LAND SURFACE =         277689.24           LAND SURFACE =         136623.45
            SOIL ZONE =         436768.61              SOIL ZONE =          34103.72
     UNSATURATED ZONE =        -284452.37       UNSATURATED ZONE =         -19623.49
       SATURATED ZONE =         -27674.48         SATURATED ZONE =          -2394.36

 OVERALL BUDGET ERROR =           -970.52           BUDGET ERROR =            -73.99


  PERCENT DISCREPANCY =             -0.15    PERCENT DISCREPANCY =             -0.04



1
 SUMMARY VOLUMETRIC BUDGET FOR GSFLOW 
 DATE: 10 21 1980              CUMULATIVE TIME STEP:      21
 MODFLOW STRESS PERIOD      2     CURRENT TIME STEP:      21     ITERATIONS:       6

 -----------------------------------------------------------------------------------

   CUMULATIVE VOLUMES               L**3   RATES FOR THIS TIME STEP           L**3/T
   ------------------                      ------------------------

                                     IN                                         IN
                                     --                                         --
        PRECIPITATION =         733157.03          PRECIPITATION =                  
           STREAMFLOW =                               STREAMFLOW =                  
     GW BOUNDARY FLOW =                         GW BOUNDARY FLOW =                  


                                    OUT                                        OUT
                                    ---                                        ---
   EVAPOTRANSPIRATION =         376396.56     EVAPOTRANSPIRATION =          37107.61
           STREAMFLOW =         144889.98             STREAMFLOW =           7105.83
     GW BOUNDARY FLOW =          13624.56       GW BOUNDARY FLOW =            648.77

   INFLOWS - OUTFLOWS =         198245.93     INFLOWS - OUTFLOWS =         -44862.21
             --------                                   --------

 TOTAL STORAGE CHANGE =         199726.04         STORAGE CHANGE =         -44781.47
       --------------                             --------------
         LAND SURFACE =           2250.88           LAND SURFACE =          -3153.72
            SOIL ZONE =         662442.73              SOIL ZONE =         -19836.14
     UNSATURATED ZONE =        -418622.05       UNSATURATED ZONE =         -18801.05
       SATURATED ZONE =         -46345.52         SATURATED ZONE =          -2990.56

 OVERALL BUDGET ERROR =          -1480.11           BUDGET ERROR =            -80.74


  PERCENT DISCREPANCY =             -0.20    PERCENT DISCREPANCY =             -0.18



1
 SUMMARY VOLUMETRIC BUDGET FOR GSFLOW 
 DATE: 10 28 1980              CUMULATIVE TIME STEP:      28
 MODFLOW STRESS PERIOD      2     CURRENT TIME STEP:      28     ITERATIONS:       6

 -----------------------------------------------------------------------------------

   CUMULATIVE VOLUMES               L**3   RATES FOR THIS TIME STEP           L**3/T
   ------------------                      ------------------------

                                     IN                                         IN
                                     --                                         --
        PRECIPITATION =        1070903.53          PRECIPITATION =                  
           STREAMFLOW =                               STREAMFLOW =                  
     GW BOUNDARY FLOW =                         GW BOUNDARY FLOW =                  


                                    OUT                                        OUT
                                    ---                                        ---
   EVAPOTRANSPIRATION =         557222.99     EVAPOTRANSPIRATION =          23594.60
           STREAMFLOW =         199840.05             STREAMFLOW =           7989.28
     GW BOUNDARY FLOW =          18165.91       GW BOUNDARY FLOW =            648.81

   INFLOWS - OUTFLOWS =         295674.57     INFLOWS - OUTFLOWS =         -32232.69
             --------                                   --------

 TOTAL STORAGE CHANGE =         297725.98         STORAGE CHANGE =         -32146.01
       --------------                             --------------
         LAND SURFACE =          24619.51           LAND SURFACE =         -30948.99
            SOIL ZONE =         889249.39              SOIL ZONE =          20270.81
     UNSATURATED ZONE =        -547225.19       UNSATURATED ZONE =         -17994.12
       SATURATED ZONE =         -68917.73         SATURATED ZONE =          -3473.70

 OVERALL BUDGET ERROR =          -2051.41           BUDGET ERROR =            -86.68


  PERCENT DISCREPANCY =             -0.19    PERCENT DISCREPANCY =             -0.27



1
 SUMMARY VOLUMETRIC BUDGET FOR GSFLOW 
 DATE: 11 04 1980              CUMULATIVE TIME STEP:      35
 MODFLOW STRESS PERIOD      2     CURRENT TIME STEP:      35     ITERATIONS:       8

 -----------------------------------------------------------------------------------

   CUMULATIVE VOLUMES               L**3   RATES FOR THIS TIME STEP           L**3/T
   ------------------                      ------------------------

                                     IN                                         IN
                                     --                                         --
        PRECIPITATION =        1070903.53          PRECIPITATION =                  
           STREAMFLOW =                               STREAMFLOW =                  
     GW BOUNDARY FLOW =                         GW BOUNDARY FLOW =                  


                                    OUT                                        OUT
                                    ---                                        ---
   EVAPOTRANSPIRATION =         854955.73     EVAPOTRANSPIRATION =          38437.87
           STREAMFLOW =         252307.74             STREAMFLOW =           7018.29
     GW BOUNDARY FLOW =          22706.92       GW BOUNDARY FLOW =            648.64

   INFLOWS - OUTFLOWS =         -59066.86     INFLOWS - OUTFLOWS =         -46104.81
             --------                                   --------

 TOTAL STORAGE CHANGE =         -56524.68         STORAGE CHANGE =         -46042.62
       --------------                             --------------
         LAND SURFACE =                             LAND SURFACE =                  
            SOIL ZONE =         710232.27              SOIL ZONE =         -24516.80
     UNSATURATED ZONE =        -670653.09       UNSATURATED ZONE =         -17361.18
       SATURATED ZONE =         -96103.86         SATURATED ZONE =          -4164.65

 OVERALL BUDGET ERROR =          -2542.17           BUDGET ERROR =            -62.19


  PERCENT DISCREPANCY =             -0.23    PERCENT DISCREPANCY =             -0.13



1
 SUMMARY VOLUMETRIC BUDGET FOR GSFLOW 
 DATE: 11 11 1980              CUMULATIVE TIME STEP:      42
 MODFLOW STRESS PERIOD      2     CURRENT TIME STEP:      42     ITERATIONS:       7

 -----------------------------------------------------------------------------------

   CUMULATIVE VOLUMES               L**3   RATES FOR THIS TIME STEP           L**3/T
   ------------------                      ------------------------

                                     IN                                         IN
                                     --                                         --
        PRECIPITATION =        1573762.54          PRECIPITATION =         255182.19
           STREAMFLOW =                               STREAMFLOW =                  
     GW BOUNDARY FLOW =                         GW BOUNDARY FLOW =                  


                                    OUT                                        OUT
                                    ---                                        ---
   EVAPOTRANSPIRATION =        1066449.21     EVAPOTRANSPIRATION =          14943.51
           STREAMFLOW =         308275.85             STREAMFLOW =          10769.59
     GW BOUNDARY FLOW =          27247.64       GW BOUNDARY FLOW =            648.84

   INFLOWS - OUTFLOWS =         171789.85     INFLOWS - OUTFLOWS =         228820.25
             --------                                   --------

 TOTAL STORAGE CHANGE =         174877.73         STORAGE CHANGE =         228885.15
       --------------                             --------------
         LAND SURFACE =          78612.95           LAND SURFACE =          76659.87
            SOIL ZONE =        1011571.51              SOIL ZONE =         172849.21
     UNSATURATED ZONE =        -789255.17       UNSATURATED ZONE =         -16535.08
       SATURATED ZONE =        -126051.56         SATURATED ZONE =          -4088.85

 OVERALL BUDGET ERROR =          -3087.88           BUDGET ERROR =            -64.90


  PERCENT DISCREPANCY =             -0.20    PERCENT DISCREPANCY =             -0.03



1
 SUMMARY VOLUMETRIC BUDGET FOR GSFLOW 
 DATE: 11 18 1980              CUMULATIVE TIME STEP:      49
 MODFLOW STRESS PERIOD      2     CURRENT TIME STEP:      49     ITERATIONS:       6

 -----------------------------------------------------------------------------------

   CUMULATIVE VOLUMES               L**3   RATES FOR THIS TIME STEP           L**3/T
   ------------------                      ------------------------

                                     IN                                         IN
                                     --                                         --
        PRECIPITATION =        1573762.54          PRECIPITATION =                  
           STREAMFLOW =                               STREAMFLOW =                  
     GW BOUNDARY FLOW =                         GW BOUNDARY FLOW =                  


                                    OUT                                        OUT
                                    ---                                        ---
   EVAPOTRANSPIRATION =        1154884.60     EVAPOTRANSPIRATION =          16641.05
           STREAMFLOW =         371180.73             STREAMFLOW =           9356.86
     GW BOUNDARY FLOW =          31789.52       GW BOUNDARY FLOW =            648.86

   INFLOWS - OUTFLOWS =          15907.70     INFLOWS - OUTFLOWS =         -26646.77
             --------                                   --------

 TOTAL STORAGE CHANGE =          19628.59         STORAGE CHANGE =         -26546.89
       --------------                             --------------
         LAND SURFACE =           8654.86           LAND SURFACE =          -6203.23
            SOIL ZONE =        1072826.74              SOIL ZONE =            475.81
     UNSATURATED ZONE =        -903178.43       UNSATURATED ZONE =         -16032.05
       SATURATED ZONE =        -158674.57         SATURATED ZONE =          -4787.42

 OVERALL BUDGET ERROR =          -3720.89           BUDGET ERROR =            -99.87


  PERCENT DISCREPANCY =             -0.24    PERCENT DISCREPANCY =             -0.38



1
 SUMMARY VOLUMETRIC BUDGET FOR GSFLOW 
 DATE: 11 25 1980              CUMULATIVE TIME STEP:      56
 MODFLOW STRESS PERIOD      2     CURRENT TIME STEP:      56     ITERATIONS:       8

 -----------------------------------------------------------------------------------

   CUMULATIVE VOLUMES               L**3   RATES FOR THIS TIME STEP           L**3/T
   ------------------                      ------------------------

                                     IN                                         IN
                                     --                                         --
        PRECIPITATION =        1648816.13          PRECIPITATION =                  
           STREAMFLOW =                               STREAMFLOW =                  
     GW BOUNDARY FLOW =                         GW BOUNDARY FLOW =                  


                                    OUT                                        OUT
                                    ---                                        ---
   EVAPOTRANSPIRATION =        1230198.80     EVAPOTRANSPIRATION =           8792.74
           STREAMFLOW =         438362.80             STREAMFLOW =           9949.34
     GW BOUNDARY FLOW =          36331.80       GW BOUNDARY FLOW =            648.93

   INFLOWS - OUTFLOWS =         -56077.28     INFLOWS - OUTFLOWS =         -19391.02
             --------                                   --------

 TOTAL STORAGE CHANGE =         -51804.23         STORAGE CHANGE =         -19326.93
       --------------                             --------------
         LAND SURFACE =          55166.83           LAND SURFACE =          -8744.58
            SOIL ZONE =        1100545.27              SOIL ZONE =          10160.40
     UNSATURATED ZONE =       -1012811.68       UNSATURATED ZONE =         -15404.75
       SATURATED ZONE =        -194704.65         SATURATED ZONE =          -5338.00

 OVERALL BUDGET ERROR =          -4273.04           BUDGET ERROR =            -64.09


  PERCENT DISCREPANCY =             -0.25    PERCENT DISCREPANCY =             -0.33



1
 SUMMARY VOLUMETRIC BUDGET FOR GSFLOW 
 DATE: 12 02 1980              CUMULATIVE TIME STEP:      63
 MODFLOW STRESS PERIOD      2     CURRENT TIME STEP:      63     ITERATIONS:       8

 -----------------------------------------------------------------------------------

   CUMULATIVE VOLUMES               L**3   RATES FOR THIS TIME STEP           L**3/T
   ------------------                      ------------------------

                                     IN                                         IN
                                     --                                         --
        PRECIPITATION =        2076621.55          PRECIPITATION =                  
           STREAMFLOW =                               STREAMFLOW =                  
     GW BOUNDARY FLOW =                         GW BOUNDARY FLOW =                  


                                    OUT                                        OUT
                                    ---                                        ---
   EVAPOTRANSPIRATION =        1423641.24     EVAPOTRANSPIRATION =          34189.28
           STREAMFLOW =         523312.46             STREAMFLOW =          15235.92
     GW BOUNDARY FLOW =          40875.74       GW BOUNDARY FLOW =            649.44

   INFLOWS - OUTFLOWS =          88792.11     INFLOWS - OUTFLOWS =         -50074.64
             --------                                   --------

 TOTAL STORAGE CHANGE =          93496.46         STORAGE CHANGE =         -50018.55
       --------------                             --------------
         LAND SURFACE =         152551.10           LAND SURFACE =         -75205.42
            SOIL ZONE =        1286013.00              SOIL ZONE =          42855.29
     UNSATURATED ZONE =       -1114355.05       UNSATURATED ZONE =         -13042.87
       SATURATED ZONE =        -230712.59         SATURATED ZONE =          -4625.55

 OVERALL BUDGET ERROR =          -4704.35           BUDGET ERROR =            -56.08


  PERCENT DISCREPANCY =             -0.23    PERCENT DISCREPANCY =             -0.11



1
 SUMMARY VOLUMETRIC BUDGET FOR GSFLOW 
 DATE: 12 09 1980              CUMULATIVE TIME STEP:      70
 MODFLOW STRESS PERIOD      2     CURRENT TIME STEP:      70     ITERATIONS:       8

 -----------------------------------------------------------------------------------

   CUMULATIVE VOLUMES               L**3   RATES FOR THIS TIME STEP           L**3/T
   ------------------                      ------------------------

                                     IN                                         IN
                                     --                                         --
        PRECIPITATION =        4284363.63          PRECIPITATION =                  
           STREAMFLOW =                               STREAMFLOW =                  
     GW BOUNDARY FLOW =                         GW BOUNDARY FLOW =                  


                                    OUT                                        OUT
                                    ---                                        ---
   EVAPOTRANSPIRATION =        1447059.60     EVAPOTRANSPIRATION =           2942.43
           STREAMFLOW =         622582.85             STREAMFLOW =          14460.04
     GW BOUNDARY FLOW =          45422.60       GW BOUNDARY FLOW =            649.64

   INFLOWS - OUTFLOWS =        2169298.58     INFLOWS - OUTFLOWS =         -18052.12
             --------                                   --------

 TOTAL STORAGE CHANGE =        2174477.18         STORAGE CHANGE =         -18003.60
       --------------                             --------------
         LAND SURFACE =        2335216.87           LAND SURFACE =          -2942.43
            SOIL ZONE =        1321846.00              SOIL ZONE =           5168.79
     UNSATURATED ZONE =       -1212719.11       UNSATURATED ZONE =         -14219.28
       SATURATED ZONE =        -269866.58         SATURATED ZONE =          -6010.68

 OVERALL BUDGET ERROR =          -5178.60           BUDGET ERROR =            -48.52


  PERCENT DISCREPANCY =             -0.12    PERCENT DISCREPANCY =             -0.27



1
 SUMMARY VOLUMETRIC BUDGET FOR GSFLOW 
 DATE: 12 16 1980              CUMULATIVE TIME STEP:      77
 MODFLOW STRESS PERIOD      2     CURRENT TIME STEP:      77     ITERATIONS:       7

 -----------------------------------------------------------------------------------

   CUMULATIVE VOLUMES               L**3   RATES FOR THIS TIME STEP           L**3/T
   ------------------                      ------------------------

                                     IN                                         IN
                                     --                                         --
        PRECIPITATION =        4284363.63          PRECIPITATION =                  
           STREAMFLOW =                               STREAMFLOW =                  
     GW BOUNDARY FLOW =                         GW BOUNDARY FLOW =                  


                                    OUT                                        OUT
                                    ---                                        ---
   EVAPOTRANSPIRATION =        1589058.95     EVAPOTRANSPIRATION =          33888.80
           STREAMFLOW =         742127.06             STREAMFLOW =          24744.71
     GW BOUNDARY FLOW =          49971.18       GW BOUNDARY FLOW =            650.23

   INFLOWS - OUTFLOWS =        1903206.44     INFLOWS - OUTFLOWS =         -59283.74
             --------                                   --------

 TOTAL STORAGE CHANGE =        1908812.58         STORAGE CHANGE =         -59213.36
       --------------                             --------------
         LAND SURFACE =        2023939.67           LAND SURFACE =        -129021.52
            SOIL ZONE =        1498072.45              SOIL ZONE =          83500.94
     UNSATURATED ZONE =       -1302771.72       UNSATURATED ZONE =          -9208.38
       SATURATED ZONE =        -310427.82         SATURATED ZONE =          -4484.40

 OVERALL BUDGET ERROR =          -5606.13           BUDGET ERROR =            -70.39


  PERCENT DISCREPANCY =             -0.13    PERCENT DISCREPANCY =             -0.12



1
 SUMMARY VOLUMETRIC BUDGET FOR GSFLOW 
 DATE: 12 23 1980              CUMULATIVE TIME STEP:      84
 MODFLOW STRESS PERIOD      2     CURRENT TIME STEP:      84     ITERATIONS:       9

 -----------------------------------------------------------------------------------

   CUMULATIVE VOLUMES               L**3   RATES FOR THIS TIME STEP           L**3/T
   ------------------                      ------------------------

                                     IN                                         IN
                                     --                                         --
        PRECIPITATION =        4516757.54          PRECIPITATION =                  
           STREAMFLOW =                               STREAMFLOW =                  
     GW BOUNDARY FLOW =                         GW BOUNDARY FLOW =                  


                                    OUT                                        OUT
                                    ---                                        ---
   EVAPOTRANSPIRATION =        1795069.75     EVAPOTRANSPIRATION =          35140.32
           STREAMFLOW =         968071.27             STREAMFLOW =          30101.98
     GW BOUNDARY FLOW =          54531.42       GW BOUNDARY FLOW =            651.90

   INFLOWS - OUTFLOWS =        1699085.09     INFLOWS - OUTFLOWS =         -65894.20
             --------                                   --------

 TOTAL STORAGE CHANGE =        1705003.09         STORAGE CHANGE =         -65860.97
       --------------                             --------------
         LAND SURFACE =        1432148.87           LAND SURFACE =         -48137.04
            SOIL ZONE =        1958110.60              SOIL ZONE =          -6699.54
     UNSATURATED ZONE =       -1346305.03       UNSATURATED ZONE =          -6282.31
       SATURATED ZONE =        -338951.36         SATURATED ZONE =          -4742.08

 OVERALL BUDGET ERROR =          -5918.00           BUDGET ERROR =            -33.23


  PERCENT DISCREPANCY =             -0.13    PERCENT DISCREPANCY =             -0.05



1
 SUMMARY VOLUMETRIC BUDGET FOR GSFLOW 
 DATE: 12 30 1980              CUMULATIVE TIME STEP:      91
 MODFLOW STRESS PERIOD      2     CURRENT TIME STEP:      91     ITERATIONS:       9

 -----------------------------------------------------------------------------------

   CUMULATIVE VOLUMES               L**3   RATES FOR THIS TIME STEP           L**3/T
   ------------------                      ------------------------

                                     IN                                         IN
                                     --                                         --
        PRECIPITATION =        4516757.54          PRECIPITATION =                  
           STREAMFLOW =                               STREAMFLOW =                  
     GW BOUNDARY FLOW =                         GW BOUNDARY FLOW =                  


                                    OUT                                        OUT
                                    ---                                        ---
   EVAPOTRANSPIRATION =        2155766.45     EVAPOTRANSPIRATION =          45891.07
           STREAMFLOW =        1212018.54             STREAMFLOW =          27165.20
     GW BOUNDARY FLOW =          59097.99       GW BOUNDARY FLOW =            652.35

   INFLOWS - OUTFLOWS =        1089874.55     INFLOWS - OUTFLOWS =         -73708.62
             --------                                   --------

 TOTAL STORAGE CHANGE =        1095975.20         STORAGE CHANGE =         -73686.18
       --------------                             --------------
         LAND SURFACE =         640989.37           LAND SURFACE =         -40335.74
            SOIL ZONE =        2181828.55              SOIL ZONE =         -23757.88
     UNSATURATED ZONE =       -1361621.89       UNSATURATED ZONE =          -5207.11
       SATURATED ZONE =        -365220.83         SATURATED ZONE =          -4385.44

 OVERALL BUDGET ERROR =          -6100.65           BUDGET ERROR =            -22.44


  PERCENT DISCREPANCY =             -0.13    PERCENT DISCREPANCY =             -0.03



1
 SUMMARY VOLUMETRIC BUDGET FOR GSFLOW 
 DATE: 01 06 1981              CUMULATIVE TIME STEP:      98
 MODFLOW STRESS PERIOD      2     CURRENT TIME STEP:      98     ITERATIONS:       8

 -----------------------------------------------------------------------------------

   CUMULATIVE VOLUMES               L**3   RATES FOR THIS TIME STEP           L**3/T
   ------------------                      ------------------------

                                     IN                                         IN
                                     --                                         --
        PRECIPITATION =        5004445.43          PRECIPITATION =                  
           STREAMFLOW =                               STREAMFLOW =                  
     GW BOUNDARY FLOW =                         GW BOUNDARY FLOW =                  


                                    OUT                                        OUT
                                    ---                                        ---
   EVAPOTRANSPIRATION =        2383693.63     EVAPOTRANSPIRATION =          21388.78
           STREAMFLOW =        1365854.95             STREAMFLOW =          21178.02
     GW BOUNDARY FLOW =          63659.51       GW BOUNDARY FLOW =            651.25

   INFLOWS - OUTFLOWS =        1191237.34     INFLOWS - OUTFLOWS =         -43218.05
             --------                                   --------

 TOTAL STORAGE CHANGE =        1197553.09         STORAGE CHANGE =         -43182.98
       --------------                             --------------
         LAND SURFACE =         837080.27           LAND SURFACE =         -30417.06
            SOIL ZONE =        2192444.04              SOIL ZONE =           3033.56
     UNSATURATED ZONE =       -1428743.47       UNSATURATED ZONE =         -10079.68
       SATURATED ZONE =        -403227.75         SATURATED ZONE =          -5719.80

 OVERALL BUDGET ERROR =          -6315.75           BUDGET ERROR =            -35.06


  PERCENT DISCREPANCY =             -0.13    PERCENT DISCREPANCY =             -0.08



1
 SUMMARY VOLUMETRIC BUDGET FOR GSFLOW 
 DATE: 01 13 1981              CUMULATIVE TIME STEP:     105
 MODFLOW STRESS PERIOD      2     CURRENT TIME STEP:     105     ITERATIONS:       7

 -----------------------------------------------------------------------------------

   CUMULATIVE VOLUMES               L**3   RATES FOR THIS TIME STEP           L**3/T
   ------------------                      ------------------------

                                     IN                                         IN
                                     --                                         --
        PRECIPITATION =        5004445.43          PRECIPITATION =                  
           STREAMFLOW =                               STREAMFLOW =                  
     GW BOUNDARY FLOW =                         GW BOUNDARY FLOW =                  


                                    OUT                                        OUT
                                    ---                                        ---
   EVAPOTRANSPIRATION =        2601206.28     EVAPOTRANSPIRATION =          44455.00
           STREAMFLOW =        1513602.84             STREAMFLOW =          20001.01
     GW BOUNDARY FLOW =          68216.62       GW BOUNDARY FLOW =            650.83

   INFLOWS - OUTFLOWS =         821419.70     INFLOWS - OUTFLOWS =         -65106.85
             --------                                   --------

 TOTAL STORAGE CHANGE =         828121.91         STORAGE CHANGE =         -65046.34
       --------------                             --------------
         LAND SURFACE =         626702.00           LAND SURFACE =         -38991.59
            SOIL ZONE =        2141633.06              SOIL ZONE =         -10378.86
     UNSATURATED ZONE =       -1493727.12       UNSATURATED ZONE =          -9178.81
       SATURATED ZONE =        -446486.03         SATURATED ZONE =          -6497.08

 OVERALL BUDGET ERROR =          -6702.22           BUDGET ERROR =            -60.50


  PERCENT DISCREPANCY =             -0.13    PERCENT DISCREPANCY =             -0.09



1
 SUMMARY VOLUMETRIC BUDGET FOR GSFLOW 
 DATE: 01 20 1981              CUMULATIVE TIME STEP:     112
 MODFLOW STRESS PERIOD      2     CURRENT TIME STEP:     112     ITERATIONS:       8

 -----------------------------------------------------------------------------------

   CUMULATIVE VOLUMES               L**3   RATES FOR THIS TIME STEP           L**3/T
   ------------------                      ------------------------

                                     IN                                         IN
                                     --                                         --
        PRECIPITATION =        5170466.84          PRECIPITATION =          41505.35
           STREAMFLOW =                               STREAMFLOW =                  
     GW BOUNDARY FLOW =                         GW BOUNDARY FLOW =                  


                                    OUT                                        OUT
                                    ---                                        ---
   EVAPOTRANSPIRATION =        2883479.31     EVAPOTRANSPIRATION =          35211.70
           STREAMFLOW =        1654882.47             STREAMFLOW =          20081.86
     GW BOUNDARY FLOW =          72771.39       GW BOUNDARY FLOW =            650.64

   INFLOWS - OUTFLOWS =         559333.67     INFLOWS - OUTFLOWS =         -14438.84
             --------                                   --------

 TOTAL STORAGE CHANGE =         566364.61         STORAGE CHANGE =         -14404.13
       --------------                             --------------
         LAND SURFACE =         436285.42           LAND SURFACE =           4326.68
            SOIL ZONE =        2147567.84              SOIL ZONE =         -10124.46
     UNSATURATED ZONE =       -1526441.69       UNSATURATED ZONE =          -1927.21
       SATURATED ZONE =        -491046.96         SATURATED ZONE =          -6679.14

 OVERALL BUDGET ERROR =          -7030.94           BUDGET ERROR =            -34.71


  PERCENT DISCREPANCY =             -0.14    PERCENT DISCREPANCY =             -0.06



1
 SUMMARY VOLUMETRIC BUDGET FOR GSFLOW 
 DATE: 01 27 1981              CUMULATIVE TIME STEP:     119
 MODFLOW STRESS PERIOD      2     CURRENT TIME STEP:     119     ITERATIONS:       9

 -----------------------------------------------------------------------------------

   CUMULATIVE VOLUMES               L**3   RATES FOR THIS TIME STEP           L**3/T
   ------------------                      ------------------------

                                     IN                                         IN
                                     --                                         --
        PRECIPITATION =        8646540.08          PRECIPITATION =        2936503.63
           STREAMFLOW =                               STREAMFLOW =                  
     GW BOUNDARY FLOW =                         GW BOUNDARY FLOW =                  


                                    OUT                                        OUT
                                    ---                                        ---
   EVAPOTRANSPIRATION =        3118009.76     EVAPOTRANSPIRATION =          13120.97
           STREAMFLOW =        1800264.67             STREAMFLOW =          18658.64
     GW BOUNDARY FLOW =          77325.71       GW BOUNDARY FLOW =            650.44

   INFLOWS - OUTFLOWS =        3650939.94     INFLOWS - OUTFLOWS =        2904073.59
             --------                                   --------

 TOTAL STORAGE CHANGE =        3658125.58         STORAGE CHANGE =        2904098.68
       --------------                             --------------
         LAND SURFACE =        3540180.85           LAND SURFACE =        2923352.24
            SOIL ZONE =        2170146.07              SOIL ZONE =          -7528.76
     UNSATURATED ZONE =       -1515773.48       UNSATURATED ZONE =          -4807.75
       SATURATED ZONE =        -536427.86         SATURATED ZONE =          -6917.05

 OVERALL BUDGET ERROR =          -7185.64           BUDGET ERROR =            -25.09


  PERCENT DISCREPANCY =             -0.08    PERCENT DISCREPANCY =             -0.00



1
 SUMMARY VOLUMETRIC BUDGET FOR GSFLOW 
 DATE: 02 03 1981              CUMULATIVE TIME STEP:     126
 MODFLOW STRESS PERIOD      2     CURRENT TIME STEP:     126     ITERATIONS:       9

 -----------------------------------------------------------------------------------

   CUMULATIVE VOLUMES               L**3   RATES FOR THIS TIME STEP           L**3/T
   ------------------                      ------------------------

                                     IN                                         IN
                                     --                                         --
        PRECIPITATION =        1.1739D+07          PRECIPITATION =                  
           STREAMFLOW =                               STREAMFLOW =                  
     GW BOUNDARY FLOW =                         GW BOUNDARY FLOW =                  


                                    OUT                                        OUT
                                    ---                                        ---
   EVAPOTRANSPIRATION =        3154522.81     EVAPOTRANSPIRATION =           6975.48
           STREAMFLOW =        1926790.61             STREAMFLOW =          17967.84
     GW BOUNDARY FLOW =          81877.80       GW BOUNDARY FLOW =            650.25

   INFLOWS - OUTFLOWS =        6575497.56     INFLOWS - OUTFLOWS =         -25593.57
             --------                                   --------

 TOTAL STORAGE CHANGE =        6582915.30         STORAGE CHANGE =         -25567.87
       --------------                             --------------
         LAND SURFACE =        6595816.50           LAND SURFACE =          -6975.48
            SOIL ZONE =        2159025.07              SOIL ZONE =            484.76
     UNSATURATED ZONE =       -1583653.82       UNSATURATED ZONE =         -11360.90
       SATURATED ZONE =        -588272.44         SATURATED ZONE =          -7716.24

 OVERALL BUDGET ERROR =          -7417.75           BUDGET ERROR =            -25.70


  PERCENT DISCREPANCY =             -0.06    PERCENT DISCREPANCY =             -0.10



1
 SUMMARY VOLUMETRIC BUDGET FOR GSFLOW 
 DATE: 02 10 1981              CUMULATIVE TIME STEP:     133
 MODFLOW STRESS PERIOD      2     CURRENT TIME STEP:     133     ITERATIONS:       7

 -----------------------------------------------------------------------------------

   CUMULATIVE VOLUMES               L**3   RATES FOR THIS TIME STEP           L**3/T
   ------------------                      ------------------------

                                     IN                                         IN
                                     --                                         --
        PRECIPITATION =        1.1838D+07          PRECIPITATION =                  
           STREAMFLOW =                               STREAMFLOW =                  
     GW BOUNDARY FLOW =                         GW BOUNDARY FLOW =                  


                                    OUT                                        OUT
                                    ---                                        ---
   EVAPOTRANSPIRATION =        3279923.87     EVAPOTRANSPIRATION =          32880.06
           STREAMFLOW =        2052834.76             STREAMFLOW =          18033.48
     GW BOUNDARY FLOW =          86429.54       GW BOUNDARY FLOW =            650.24

   INFLOWS - OUTFLOWS =        6419065.10     INFLOWS - OUTFLOWS =         -51563.78
             --------                                   --------

 TOTAL STORAGE CHANGE =        6426750.63         STORAGE CHANGE =         -51490.18
       --------------                             --------------
         LAND SURFACE =        6569979.95           LAND SURFACE =         -32880.06
            SOIL ZONE =        2163253.77              SOIL ZONE =            586.20
     UNSATURATED ZONE =       -1661833.70       UNSATURATED ZONE =         -10834.21
       SATURATED ZONE =        -644649.39         SATURATED ZONE =          -8362.11

 OVERALL BUDGET ERROR =          -7685.53           BUDGET ERROR =            -73.59


  PERCENT DISCREPANCY =             -0.06    PERCENT DISCREPANCY =             -0.14



1
 SUMMARY VOLUMETRIC BUDGET FOR GSFLOW 
 DATE: 02 17 1981              CUMULATIVE TIME STEP:     140
 MODFLOW STRESS PERIOD      2     CURRENT TIME STEP:     140     ITERATIONS:      14

 -----------------------------------------------------------------------------------

   CUMULATIVE VOLUMES               L**3   RATES FOR THIS TIME STEP           L**3/T
   ------------------                      ------------------------

                                     IN                                         IN
                                     --                                         --
        PRECIPITATION =        1.2765D+07          PRECIPITATION =          68929.28
           STREAMFLOW =                               STREAMFLOW =                  
     GW BOUNDARY FLOW =                         GW BOUNDARY FLOW =                  


                                    OUT                                        OUT
                                    ---                                        ---
   EVAPOTRANSPIRATION =        3618021.67     EVAPOTRANSPIRATION =          68607.56
           STREAMFLOW =        2594001.88             STREAMFLOW =         124795.23
     GW BOUNDARY FLOW =          91003.32       GW BOUNDARY FLOW =            656.82

   INFLOWS - OUTFLOWS =        6461942.25     INFLOWS - OUTFLOWS =        -125130.33
             --------                                   --------

 TOTAL STORAGE CHANGE =        6469904.00         STORAGE CHANGE =        -125116.57
       --------------                             --------------
         LAND SURFACE =        5590061.11           LAND SURFACE =        -278671.93
            SOIL ZONE =        2957464.42              SOIL ZONE =          72147.28
     UNSATURATED ZONE =       -1416564.53       UNSATURATED ZONE =          78967.04
       SATURATED ZONE =        -661057.00         SATURATED ZONE =           2441.05

 OVERALL BUDGET ERROR =          -7961.76           BUDGET ERROR =            -13.77


  PERCENT DISCREPANCY =             -0.06    PERCENT DISCREPANCY =             -0.01



1
 SUMMARY VOLUMETRIC BUDGET FOR GSFLOW 
 DATE: 02 24 1981              CUMULATIVE TIME STEP:     147
 MODFLOW STRESS PERIOD      2     CURRENT TIME STEP:     147     ITERATIONS:      14

 -----------------------------------------------------------------------------------

   CUMULATIVE VOLUMES               L**3   RATES FOR THIS TIME STEP           L**3/T
   ------------------                      ------------------------

                                     IN                                         IN
                                     --                                         --
        PRECIPITATION =        1.3179D+07          PRECIPITATION =         344646.37
           STREAMFLOW =                               STREAMFLOW =                  
     GW BOUNDARY FLOW =                         GW BOUNDARY FLOW =                  


                                    OUT                                        OUT
                                    ---                                        ---
   EVAPOTRANSPIRATION =        3959343.25     EVAPOTRANSPIRATION =          18832.76
           STREAMFLOW =        3151295.52             STREAMFLOW =          52010.80
     GW BOUNDARY FLOW =          95596.36       GW BOUNDARY FLOW =            655.14

   INFLOWS - OUTFLOWS =        5972309.62     INFLOWS - OUTFLOWS =         273147.67
             --------                                   --------

 TOTAL STORAGE CHANGE =        5980239.62         STORAGE CHANGE =         273150.28
       --------------                             --------------
         LAND SURFACE =        4984244.21           LAND SURFACE =         286368.61
            SOIL ZONE =        2697055.04              SOIL ZONE =         -43259.34
     UNSATURATED ZONE =       -1063485.27       UNSATURATED ZONE =          27623.69
       SATURATED ZONE =        -637574.36         SATURATED ZONE =           2417.33

 OVERALL BUDGET ERROR =          -7930.00           BUDGET ERROR =             -2.61


  PERCENT DISCREPANCY =             -0.06    PERCENT DISCREPANCY =             -0.00



1
 SUMMARY VOLUMETRIC BUDGET FOR GSFLOW 
 DATE: 03 03 1981              CUMULATIVE TIME STEP:     154
 MODFLOW STRESS PERIOD      2     CURRENT TIME STEP:     154     ITERATIONS:      11

 -----------------------------------------------------------------------------------

   CUMULATIVE VOLUMES               L**3   RATES FOR THIS TIME STEP           L**3/T
   ------------------                      ------------------------

                                     IN                                         IN
                                     --                                         --
        PRECIPITATION =        1.3447D+07          PRECIPITATION =                  
           STREAMFLOW =                               STREAMFLOW =                  
     GW BOUNDARY FLOW =                         GW BOUNDARY FLOW =                  


                                    OUT                                        OUT
                                    ---                                        ---
   EVAPOTRANSPIRATION =        4120025.98     EVAPOTRANSPIRATION =          45353.75
           STREAMFLOW =        3375079.95             STREAMFLOW =          27755.62
     GW BOUNDARY FLOW =         100169.25       GW BOUNDARY FLOW =            652.32

   INFLOWS - OUTFLOWS =        5851327.86     INFLOWS - OUTFLOWS =         -73761.68
             --------                                   --------

 TOTAL STORAGE CHANGE =        5859147.72         STORAGE CHANGE =         -73781.34
       --------------                             --------------
         LAND SURFACE =        5068137.30           LAND SURFACE =         -66041.98
            SOIL ZONE =        2489341.25              SOIL ZONE =           2843.65
     UNSATURATED ZONE =       -1055842.40       UNSATURATED ZONE =          -8515.32
       SATURATED ZONE =        -642488.43         SATURATED ZONE =          -2067.69

 OVERALL BUDGET ERROR =          -7819.86           BUDGET ERROR =             19.66


  PERCENT DISCREPANCY =             -0.06    PERCENT DISCREPANCY =              0.03



1
 SUMMARY VOLUMETRIC BUDGET FOR GSFLOW 
 DATE: 03 10 1981              CUMULATIVE TIME STEP:     161
 MODFLOW STRESS PERIOD      2     CURRENT TIME STEP:     161     ITERATIONS:      10

 -----------------------------------------------------------------------------------

   CUMULATIVE VOLUMES               L**3   RATES FOR THIS TIME STEP           L**3/T
   ------------------                      ------------------------

                                     IN                                         IN
                                     --                                         --
        PRECIPITATION =        1.3493D+07          PRECIPITATION =                  
           STREAMFLOW =                               STREAMFLOW =                  
     GW BOUNDARY FLOW =                         GW BOUNDARY FLOW =                  


                                    OUT                                        OUT
                                    ---                                        ---
   EVAPOTRANSPIRATION =        4465815.56     EVAPOTRANSPIRATION =          72811.00
           STREAMFLOW =        3610964.43             STREAMFLOW =          43640.65
     GW BOUNDARY FLOW =         104735.29       GW BOUNDARY FLOW =            652.93

   INFLOWS - OUTFLOWS =        5311425.87     INFLOWS - OUTFLOWS =        -117104.58
             --------                                   --------

 TOTAL STORAGE CHANGE =        5319175.45         STORAGE CHANGE =        -117112.98
       --------------                             --------------
         LAND SURFACE =        4391652.97           LAND SURFACE =        -169089.79
            SOIL ZONE =        2603391.84              SOIL ZONE =          28907.13
     UNSATURATED ZONE =       -1021448.89       UNSATURATED ZONE =          23465.32
       SATURATED ZONE =        -654420.48         SATURATED ZONE =           -395.65

 OVERALL BUDGET ERROR =          -7749.57           BUDGET ERROR =              8.40


  PERCENT DISCREPANCY =             -0.06    PERCENT DISCREPANCY =              0.01



1
 SUMMARY VOLUMETRIC BUDGET FOR GSFLOW 
 DATE: 03 17 1981              CUMULATIVE TIME STEP:     168
 MODFLOW STRESS PERIOD      2     CURRENT TIME STEP:     168     ITERATIONS:       9

 -----------------------------------------------------------------------------------

   CUMULATIVE VOLUMES               L**3   RATES FOR THIS TIME STEP           L**3/T
   ------------------                      ------------------------

                                     IN                                         IN
                                     --                                         --
        PRECIPITATION =        1.3744D+07          PRECIPITATION =                  
           STREAMFLOW =                               STREAMFLOW =                  
     GW BOUNDARY FLOW =                         GW BOUNDARY FLOW =                  


                                    OUT                                        OUT
                                    ---                                        ---
   EVAPOTRANSPIRATION =        4834225.32     EVAPOTRANSPIRATION =          40234.36
           STREAMFLOW =        3837924.27             STREAMFLOW =          24123.66
     GW BOUNDARY FLOW =         109302.55       GW BOUNDARY FLOW =            651.87

   INFLOWS - OUTFLOWS =        4963038.74     INFLOWS - OUTFLOWS =         -65009.90
             --------                                   --------

 TOTAL STORAGE CHANGE =        4970694.44         STORAGE CHANGE =         -65018.25
       --------------                             --------------
         LAND SURFACE =        4202420.68           LAND SURFACE =         -39897.13
            SOIL ZONE =        2437967.47              SOIL ZONE =          -5416.39
     UNSATURATED ZONE =        -999403.04       UNSATURATED ZONE =         -15649.45
       SATURATED ZONE =        -670290.67         SATURATED ZONE =          -4055.28

 OVERALL BUDGET ERROR =          -7655.69           BUDGET ERROR =              8.35


  PERCENT DISCREPANCY =             -0.06    PERCENT DISCREPANCY =              0.01



1
 SUMMARY VOLUMETRIC BUDGET FOR GSFLOW 
 DATE: 03 24 1981              CUMULATIVE TIME STEP:     175
 MODFLOW STRESS PERIOD      2     CURRENT TIME STEP:     175     ITERATIONS:       9

 -----------------------------------------------------------------------------------

   CUMULATIVE VOLUMES               L**3   RATES FOR THIS TIME STEP           L**3/T
   ------------------                      ------------------------

                                     IN                                         IN
                                     --                                         --
        PRECIPITATION =        1.4367D+07          PRECIPITATION =                  
           STREAMFLOW =                               STREAMFLOW =                  
     GW BOUNDARY FLOW =                         GW BOUNDARY FLOW =                  


                                    OUT                                        OUT
                                    ---                                        ---
   EVAPOTRANSPIRATION =        5190002.65     EVAPOTRANSPIRATION =          87428.11
           STREAMFLOW =        4013570.79             STREAMFLOW =          26792.03
     GW BOUNDARY FLOW =         113862.98       GW BOUNDARY FLOW =            651.45

   INFLOWS - OUTFLOWS =        5049309.10     INFLOWS - OUTFLOWS =        -114871.58
             --------                                   --------

 TOTAL STORAGE CHANGE =        5056992.05         STORAGE CHANGE =        -114871.85
       --------------                             --------------
         LAND SURFACE =        4477696.12           LAND SURFACE =         -65035.10
            SOIL ZONE =        2350761.97              SOIL ZONE =         -41060.99
     UNSATURATED ZONE =       -1068621.93       UNSATURATED ZONE =          -3965.29
       SATURATED ZONE =        -702844.11         SATURATED ZONE =          -4810.47

 OVERALL BUDGET ERROR =          -7682.95           BUDGET ERROR =              0.27


  PERCENT DISCREPANCY =             -0.05    PERCENT DISCREPANCY =              0.00



1
 SUMMARY VOLUMETRIC BUDGET FOR GSFLOW 
 DATE: 03 31 1981              CUMULATIVE TIME STEP:     182
 MODFLOW STRESS PERIOD      2     CURRENT TIME STEP:     182     ITERATIONS:      12

 -----------------------------------------------------------------------------------

   CUMULATIVE VOLUMES               L**3   RATES FOR THIS TIME STEP           L**3/T
   ------------------                      ------------------------

                                     IN                                         IN
                                     --                                         --
        PRECIPITATION =        1.5777D+07          PRECIPITATION =                  
           STREAMFLOW =                               STREAMFLOW =                  
     GW BOUNDARY FLOW =                         GW BOUNDARY FLOW =                  


                                    OUT                                        OUT
                                    ---                                        ---
   EVAPOTRANSPIRATION =        5619940.04     EVAPOTRANSPIRATION =          54090.27
           STREAMFLOW =        4522355.34             STREAMFLOW =          37103.96
     GW BOUNDARY FLOW =         118444.98       GW BOUNDARY FLOW =            653.60

   INFLOWS - OUTFLOWS =        5516007.62     INFLOWS - OUTFLOWS =         -91847.83
             --------                                   --------

 TOTAL STORAGE CHANGE =        5523622.06         STORAGE CHANGE =         -91863.45
       --------------                             --------------
         LAND SURFACE =        4494242.72           LAND SURFACE =         -55488.75
            SOIL ZONE =        2547235.50              SOIL ZONE =         -41751.82
     UNSATURATED ZONE =        -823296.57       UNSATURATED ZONE =           5946.06
       SATURATED ZONE =        -694559.59         SATURATED ZONE =           -568.93

 OVERALL BUDGET ERROR =          -7614.44           BUDGET ERROR =             15.61


  PERCENT DISCREPANCY =             -0.05    PERCENT DISCREPANCY =              0.02



1
 SUMMARY VOLUMETRIC BUDGET FOR GSFLOW 
 DATE: 04 07 1981              CUMULATIVE TIME STEP:     189
 MODFLOW STRESS PERIOD      2     CURRENT TIME STEP:     189     ITERATIONS:      10

 -----------------------------------------------------------------------------------

   CUMULATIVE VOLUMES               L**3   RATES FOR THIS TIME STEP           L**3/T
   ------------------                      ------------------------

                                     IN                                         IN
                                     --                                         --
        PRECIPITATION =        1.6121D+07          PRECIPITATION =                  
           STREAMFLOW =                               STREAMFLOW =                  
     GW BOUNDARY FLOW =                         GW BOUNDARY FLOW =                  


                                    OUT                                        OUT
                                    ---                                        ---
   EVAPOTRANSPIRATION =        6246006.28     EVAPOTRANSPIRATION =         103845.38
           STREAMFLOW =        4840640.79             STREAMFLOW =          43396.18
     GW BOUNDARY FLOW =         123020.28       GW BOUNDARY FLOW =            653.73

   INFLOWS - OUTFLOWS =        4911800.26     INFLOWS - OUTFLOWS =        -147895.30
             --------                                   --------

 TOTAL STORAGE CHANGE =        4919284.55         STORAGE CHANGE =        -147921.70
       --------------                             --------------
         LAND SURFACE =        3870170.36           LAND SURFACE =        -138668.80
            SOIL ZONE =        2478554.30              SOIL ZONE =         -20336.65
     UNSATURATED ZONE =        -738877.79       UNSATURATED ZONE =          10760.58
       SATURATED ZONE =        -690562.32         SATURATED ZONE =            323.17

 OVERALL BUDGET ERROR =          -7484.29           BUDGET ERROR =             26.40


  PERCENT DISCREPANCY =             -0.05    PERCENT DISCREPANCY =              0.02



1
 SUMMARY VOLUMETRIC BUDGET FOR GSFLOW 
 DATE: 04 14 1981              CUMULATIVE TIME STEP:     196
 MODFLOW STRESS PERIOD      2     CURRENT TIME STEP:     196     ITERATIONS:      13

 -----------------------------------------------------------------------------------

   CUMULATIVE VOLUMES               L**3   RATES FOR THIS TIME STEP           L**3/T
   ------------------                      ------------------------

                                     IN                                         IN
                                     --                                         --
        PRECIPITATION =        1.6121D+07          PRECIPITATION =                  
           STREAMFLOW =                               STREAMFLOW =                  
     GW BOUNDARY FLOW =                         GW BOUNDARY FLOW =                  


                                    OUT                                        OUT
                                    ---                                        ---
   EVAPOTRANSPIRATION =        7156695.81     EVAPOTRANSPIRATION =         191911.71
           STREAMFLOW =        5167772.22             STREAMFLOW =          55462.55
     GW BOUNDARY FLOW =         127595.66       GW BOUNDARY FLOW =            653.68

   INFLOWS - OUTFLOWS =        3669403.93     INFLOWS - OUTFLOWS =        -248027.94
             --------                                   --------

 TOTAL STORAGE CHANGE =        3676774.57         STORAGE CHANGE =        -248035.50
       --------------                             --------------
         LAND SURFACE =        2621455.97           LAND SURFACE =        -253007.68
            SOIL ZONE =        2386982.11              SOIL ZONE =         -16793.10
     UNSATURATED ZONE =        -647796.99       UNSATURATED ZONE =          19710.55
       SATURATED ZONE =        -683866.52         SATURATED ZONE =           2054.74

 OVERALL BUDGET ERROR =          -7370.64           BUDGET ERROR =              7.56


  PERCENT DISCREPANCY =             -0.05    PERCENT DISCREPANCY =              0.00



1
 SUMMARY VOLUMETRIC BUDGET FOR GSFLOW 
 DATE: 04 21 1981              CUMULATIVE TIME STEP:     203
 MODFLOW STRESS PERIOD      2     CURRENT TIME STEP:     203     ITERATIONS:      12

 -----------------------------------------------------------------------------------

   CUMULATIVE VOLUMES               L**3   RATES FOR THIS TIME STEP           L**3/T
   ------------------                      ------------------------

                                     IN                                         IN
                                     --                                         --
        PRECIPITATION =        1.6310D+07          PRECIPITATION =                  
           STREAMFLOW =                               STREAMFLOW =                  
     GW BOUNDARY FLOW =                         GW BOUNDARY FLOW =                  


                                    OUT                                        OUT
                                    ---                                        ---
   EVAPOTRANSPIRATION =        8228657.91     EVAPOTRANSPIRATION =         152246.51
           STREAMFLOW =        5506949.59             STREAMFLOW =          45782.50
     GW BOUNDARY FLOW =         132167.10       GW BOUNDARY FLOW =            652.63

   INFLOWS - OUTFLOWS =        2442468.04     INFLOWS - OUTFLOWS =        -198681.65
             --------                                   --------

 TOTAL STORAGE CHANGE =        2449714.19         STORAGE CHANGE =        -198713.93
       --------------                             --------------
         LAND SURFACE =        1440926.25           LAND SURFACE =        -121359.42
            SOIL ZONE =        2205130.63              SOIL ZONE =         -97194.10
     UNSATURATED ZONE =        -529431.03       UNSATURATED ZONE =          16974.87
       SATURATED ZONE =        -666911.66         SATURATED ZONE =           2864.71

 OVERALL BUDGET ERROR =          -7246.15           BUDGET ERROR =             32.29


  PERCENT DISCREPANCY =             -0.04    PERCENT DISCREPANCY =              0.02



1
 SUMMARY VOLUMETRIC BUDGET FOR GSFLOW 
 DATE: 04 28 1981              CUMULATIVE TIME STEP:     210
 MODFLOW STRESS PERIOD      2     CURRENT TIME STEP:     210     ITERATIONS:      14

 -----------------------------------------------------------------------------------

   CUMULATIVE VOLUMES               L**3   RATES FOR THIS TIME STEP           L**3/T
   ------------------                      ------------------------

                                     IN                                         IN
                                     --                                         --
        PRECIPITATION =        1.6515D+07          PRECIPITATION =                  
           STREAMFLOW =                               STREAMFLOW =                  
     GW BOUNDARY FLOW =                         GW BOUNDARY FLOW =                  


                                    OUT                                        OUT
                                    ---                                        ---
   EVAPOTRANSPIRATION =        9467121.65     EVAPOTRANSPIRATION =         200395.18
           STREAMFLOW =        5719028.00             STREAMFLOW =          24666.57
     GW BOUNDARY FLOW =         136726.59       GW BOUNDARY FLOW =            650.47

   INFLOWS - OUTFLOWS =        1192556.65     INFLOWS - OUTFLOWS =        -225712.22
             --------                                   --------

 TOTAL STORAGE CHANGE =        1199691.01         STORAGE CHANGE =        -225732.48
       --------------                             --------------
         LAND SURFACE =         691530.96           LAND SURFACE =         -83509.90
            SOIL ZONE =        1694928.62              SOIL ZONE =        -138423.27
     UNSATURATED ZONE =        -527346.49       UNSATURATED ZONE =          -4063.31
       SATURATED ZONE =        -659422.08         SATURATED ZONE =            263.99

 OVERALL BUDGET ERROR =          -7134.36           BUDGET ERROR =             20.25


  PERCENT DISCREPANCY =             -0.04    PERCENT DISCREPANCY =              0.01



1
 SUMMARY VOLUMETRIC BUDGET FOR GSFLOW 
 DATE: 05 05 1981              CUMULATIVE TIME STEP:     217
 MODFLOW STRESS PERIOD      2     CURRENT TIME STEP:     217     ITERATIONS:      13

 -----------------------------------------------------------------------------------

   CUMULATIVE VOLUMES               L**3   RATES FOR THIS TIME STEP           L**3/T
   ------------------                      ------------------------

                                     IN                                         IN
                                     --                                         --
        PRECIPITATION =        1.6515D+07          PRECIPITATION =                  
           STREAMFLOW =                               STREAMFLOW =                  
     GW BOUNDARY FLOW =                         GW BOUNDARY FLOW =                  


                                    OUT                                        OUT
                                    ---                                        ---
   EVAPOTRANSPIRATION =        1.0318D+07     EVAPOTRANSPIRATION =          47812.19
           STREAMFLOW =        5824926.62             STREAMFLOW =          10857.23
     GW BOUNDARY FLOW =         141273.00       GW BOUNDARY FLOW =            648.80

   INFLOWS - OUTFLOWS =         231364.07     INFLOWS - OUTFLOWS =         -59318.23
             --------                                   --------

 TOTAL STORAGE CHANGE =         238445.19         STORAGE CHANGE =         -59318.17
       --------------                             --------------
         LAND SURFACE =         347350.76           LAND SURFACE =         -17502.06
            SOIL ZONE =        1187013.77              SOIL ZONE =         -23041.58
     UNSATURATED ZONE =        -623346.70       UNSATURATED ZONE =         -15749.26
       SATURATED ZONE =        -672572.64         SATURATED ZONE =          -3025.27

 OVERALL BUDGET ERROR =          -7081.12           BUDGET ERROR =             -0.06


  PERCENT DISCREPANCY =             -0.04    PERCENT DISCREPANCY =             -0.00



1
 SUMMARY VOLUMETRIC BUDGET FOR GSFLOW 
 DATE: 05 12 1981              CUMULATIVE TIME STEP:     224
 MODFLOW STRESS PERIOD      2     CURRENT TIME STEP:     224     ITERATIONS:      18

 -----------------------------------------------------------------------------------

   CUMULATIVE VOLUMES               L**3   RATES FOR THIS TIME STEP           L**3/T
   ------------------                      ------------------------

                                     IN                                         IN
                                     --                                         --
        PRECIPITATION =        1.6515D+07          PRECIPITATION =                  
           STREAMFLOW =                               STREAMFLOW =                  
     GW BOUNDARY FLOW =                         GW BOUNDARY FLOW =                  


                                    OUT                                        OUT
                                    ---                                        ---
   EVAPOTRANSPIRATION =        1.0809D+07     EVAPOTRANSPIRATION =          90794.75
           STREAMFLOW =        5895983.83             STREAMFLOW =          10476.91
     GW BOUNDARY FLOW =         145811.67       GW BOUNDARY FLOW =            648.22

   INFLOWS - OUTFLOWS =        -335294.78     INFLOWS - OUTFLOWS =        -101919.88
             --------                                   --------

 TOTAL STORAGE CHANGE =        -328212.02         STORAGE CHANGE =        -101912.13
       --------------                             --------------
         LAND SURFACE =         198678.97           LAND SURFACE =         -25500.84
            SOIL ZONE =         903440.78              SOIL ZONE =         -57625.96
     UNSATURATED ZONE =        -728114.23       UNSATURATED ZONE =         -13418.49
       SATURATED ZONE =        -702217.54         SATURATED ZONE =          -5366.84

 OVERALL BUDGET ERROR =          -7082.77           BUDGET ERROR =             -7.75


  PERCENT DISCREPANCY =             -0.04    PERCENT DISCREPANCY =             -0.01



1
 SUMMARY VOLUMETRIC BUDGET FOR GSFLOW 
 DATE: 05 19 1981              CUMULATIVE TIME STEP:     231
 MODFLOW STRESS PERIOD      2     CURRENT TIME STEP:     231     ITERATIONS:      17

 -----------------------------------------------------------------------------------

   CUMULATIVE VOLUMES               L**3   RATES FOR THIS TIME STEP           L**3/T
   ------------------                      ------------------------

                                     IN                                         IN
                                     --                                         --
        PRECIPITATION =        1.7837D+07          PRECIPITATION =         169045.43
           STREAMFLOW =                               STREAMFLOW =                  
     GW BOUNDARY FLOW =                         GW BOUNDARY FLOW =                  


                                    OUT                                        OUT
                                    ---                                        ---
   EVAPOTRANSPIRATION =        1.1152D+07     EVAPOTRANSPIRATION =          32129.65
           STREAMFLOW =        6027008.92             STREAMFLOW =          27330.82
     GW BOUNDARY FLOW =         150351.18       GW BOUNDARY FLOW =            649.57

   INFLOWS - OUTFLOWS =         507431.35     INFLOWS - OUTFLOWS =         108935.39
             --------                                   --------

 TOTAL STORAGE CHANGE =         514516.87         STORAGE CHANGE =         108936.19
       --------------                             --------------
         LAND SURFACE =         167097.84           LAND SURFACE =           4534.24
            SOIL ZONE =        1884125.41              SOIL ZONE =         110167.21
     UNSATURATED ZONE =        -795567.21       UNSATURATED ZONE =           -526.35
       SATURATED ZONE =        -741139.17         SATURATED ZONE =          -5238.91

 OVERALL BUDGET ERROR =          -7085.52           BUDGET ERROR =             -0.80


  PERCENT DISCREPANCY =             -0.04    PERCENT DISCREPANCY =             -0.00



1
 SUMMARY VOLUMETRIC BUDGET FOR GSFLOW 
 DATE: 05 26 1981              CUMULATIVE TIME STEP:     238
 MODFLOW STRESS PERIOD      2     CURRENT TIME STEP:     238     ITERATIONS:      14

 -----------------------------------------------------------------------------------

   CUMULATIVE VOLUMES               L**3   RATES FOR THIS TIME STEP           L**3/T
   ------------------                      ------------------------

                                     IN                                         IN
                                     --                                         --
        PRECIPITATION =        1.8252D+07          PRECIPITATION =         284303.67
           STREAMFLOW =                               STREAMFLOW =                  
     GW BOUNDARY FLOW =                         GW BOUNDARY FLOW =                  


                                    OUT                                        OUT
                                    ---                                        ---
   EVAPOTRANSPIRATION =        1.1981D+07     EVAPOTRANSPIRATION =         133987.99
           STREAMFLOW =        6140431.71             STREAMFLOW =          19479.17
     GW BOUNDARY FLOW =         154892.64       GW BOUNDARY FLOW =            648.54

   INFLOWS - OUTFLOWS =         -23990.63     INFLOWS - OUTFLOWS =         130187.98
             --------                                   --------

 TOTAL STORAGE CHANGE =         -16900.34         STORAGE CHANGE =         130196.20
       --------------                             --------------
         LAND SURFACE =          96880.50           LAND SURFACE =          -7049.94
            SOIL ZONE =        1526851.85              SOIL ZONE =         154554.49
     UNSATURATED ZONE =        -852197.41       UNSATURATED ZONE =         -10637.55
       SATURATED ZONE =        -788435.27         SATURATED ZONE =          -6670.80

 OVERALL BUDGET ERROR =          -7090.28           BUDGET ERROR =             -8.22


  PERCENT DISCREPANCY =             -0.04    PERCENT DISCREPANCY =             -0.00



1
 SUMMARY VOLUMETRIC BUDGET FOR GSFLOW 
 DATE: 06 02 1981              CUMULATIVE TIME STEP:     245
 MODFLOW STRESS PERIOD      2     CURRENT TIME STEP:     245     ITERATIONS:      14

 -----------------------------------------------------------------------------------

   CUMULATIVE VOLUMES               L**3   RATES FOR THIS TIME STEP           L**3/T
   ------------------                      ------------------------

                                     IN                                         IN
                                     --                                         --
        PRECIPITATION =        1.8318D+07          PRECIPITATION =          50869.96
           STREAMFLOW =                               STREAMFLOW =                  
     GW BOUNDARY FLOW =                         GW BOUNDARY FLOW =                  


                                    OUT                                        OUT
                                    ---                                        ---
   EVAPOTRANSPIRATION =        1.2776D+07     EVAPOTRANSPIRATION =          68974.09
           STREAMFLOW =        6211165.83             STREAMFLOW =           7782.38
     GW BOUNDARY FLOW =         159427.97       GW BOUNDARY FLOW =            647.45

   INFLOWS - OUTFLOWS =        -828700.39     INFLOWS - OUTFLOWS =         -26533.96
             --------                                   --------

 TOTAL STORAGE CHANGE =        -821605.81         STORAGE CHANGE =         -26535.98
       --------------                             --------------
         LAND SURFACE =          61812.20           LAND SURFACE =          30830.75
            SOIL ZONE =         901587.91              SOIL ZONE =         -35337.23
     UNSATURATED ZONE =        -939542.79       UNSATURATED ZONE =         -13580.67
       SATURATED ZONE =        -845463.13         SATURATED ZONE =          -8448.83

 OVERALL BUDGET ERROR =          -7094.57           BUDGET ERROR =              2.02


  PERCENT DISCREPANCY =             -0.04    PERCENT DISCREPANCY =              0.00



1
 SUMMARY VOLUMETRIC BUDGET FOR GSFLOW 
 DATE: 06 09 1981              CUMULATIVE TIME STEP:     252
 MODFLOW STRESS PERIOD      2     CURRENT TIME STEP:     252     ITERATIONS:      13

 -----------------------------------------------------------------------------------

   CUMULATIVE VOLUMES               L**3   RATES FOR THIS TIME STEP           L**3/T
   ------------------                      ------------------------

                                     IN                                         IN
                                     --                                         --
        PRECIPITATION =        1.8318D+07          PRECIPITATION =                  
           STREAMFLOW =                               STREAMFLOW =                  
     GW BOUNDARY FLOW =                         GW BOUNDARY FLOW =                  


                                    OUT                                        OUT
                                    ---                                        ---
   EVAPOTRANSPIRATION =        1.3269D+07     EVAPOTRANSPIRATION =          51443.33
           STREAMFLOW =        6258985.32             STREAMFLOW =           6425.24
     GW BOUNDARY FLOW =         163957.91       GW BOUNDARY FLOW =            646.96

   INFLOWS - OUTFLOWS =       -1373946.45     INFLOWS - OUTFLOWS =         -58515.53
             --------                                   --------

 TOTAL STORAGE CHANGE =       -1366817.06         STORAGE CHANGE =         -58513.84
       --------------                             --------------
         LAND SURFACE =           8252.08           LAND SURFACE =          -1595.17
            SOIL ZONE =         565110.76              SOIL ZONE =         -34710.65
     UNSATURATED ZONE =       -1032943.92       UNSATURATED ZONE =         -13195.42
       SATURATED ZONE =        -907235.99         SATURATED ZONE =          -9012.60

 OVERALL BUDGET ERROR =          -7129.39           BUDGET ERROR =             -1.69


  PERCENT DISCREPANCY =             -0.04    PERCENT DISCREPANCY =             -0.00



1
 SUMMARY VOLUMETRIC BUDGET FOR GSFLOW 
 DATE: 06 16 1981              CUMULATIVE TIME STEP:     259
 MODFLOW STRESS PERIOD      2     CURRENT TIME STEP:     259     ITERATIONS:      17

 -----------------------------------------------------------------------------------

   CUMULATIVE VOLUMES               L**3   RATES FOR THIS TIME STEP           L**3/T
   ------------------                      ------------------------

                                     IN                                         IN
                                     --                                         --
        PRECIPITATION =        1.8318D+07          PRECIPITATION =                  
           STREAMFLOW =                               STREAMFLOW =                  
     GW BOUNDARY FLOW =                         GW BOUNDARY FLOW =                  


                                    OUT                                        OUT
                                    ---                                        ---
   EVAPOTRANSPIRATION =        1.3461D+07     EVAPOTRANSPIRATION =          45201.78
           STREAMFLOW =        6302667.20             STREAMFLOW =           6169.99
     GW BOUNDARY FLOW =         168485.72       GW BOUNDARY FLOW =            646.75

   INFLOWS - OUTFLOWS =       -1613450.99     INFLOWS - OUTFLOWS =         -52018.51
             --------                                   --------

 TOTAL STORAGE CHANGE =       -1606298.77         STORAGE CHANGE =         -52020.04
       --------------                             --------------
         LAND SURFACE =           3425.60           LAND SURFACE =           -943.52
            SOIL ZONE =         484622.41              SOIL ZONE =         -29185.60
     UNSATURATED ZONE =       -1122924.36       UNSATURATED ZONE =         -12615.30
       SATURATED ZONE =        -971422.43         SATURATED ZONE =          -9275.61

 OVERALL BUDGET ERROR =          -7152.22           BUDGET ERROR =              1.53


  PERCENT DISCREPANCY =             -0.04    PERCENT DISCREPANCY =              0.00



1
 SUMMARY VOLUMETRIC BUDGET FOR GSFLOW 
 DATE: 06 23 1981              CUMULATIVE TIME STEP:     266
 MODFLOW STRESS PERIOD      2     CURRENT TIME STEP:     266     ITERATIONS:      14

 -----------------------------------------------------------------------------------

   CUMULATIVE VOLUMES               L**3   RATES FOR THIS TIME STEP           L**3/T
   ------------------                      ------------------------

                                     IN                                         IN
                                     --                                         --
        PRECIPITATION =        1.8318D+07          PRECIPITATION =                  
           STREAMFLOW =                               STREAMFLOW =                  
     GW BOUNDARY FLOW =                         GW BOUNDARY FLOW =                  


                                    OUT                                        OUT
                                    ---                                        ---
   EVAPOTRANSPIRATION =        1.3758D+07     EVAPOTRANSPIRATION =          34785.79
           STREAMFLOW =        6344800.66             STREAMFLOW =           5940.92
     GW BOUNDARY FLOW =         173012.23       GW BOUNDARY FLOW =            646.57

   INFLOWS - OUTFLOWS =       -1957918.12     INFLOWS - OUTFLOWS =         -41373.27
             --------                                   --------

 TOTAL STORAGE CHANGE =       -1950731.63         STORAGE CHANGE =         -41364.72
       --------------                             --------------
         LAND SURFACE =                             LAND SURFACE =                  
            SOIL ZONE =         295633.65              SOIL ZONE =         -19770.77
     UNSATURATED ZONE =       -1208421.34       UNSATURATED ZONE =         -11795.75
       SATURATED ZONE =       -1037943.95         SATURATED ZONE =          -9798.20

 OVERALL BUDGET ERROR =          -7186.49           BUDGET ERROR =             -8.56


  PERCENT DISCREPANCY =             -0.04    PERCENT DISCREPANCY =             -0.02



1
 SUMMARY VOLUMETRIC BUDGET FOR GSFLOW 
 DATE: 06 30 1981              CUMULATIVE TIME STEP:     273
 MODFLOW STRESS PERIOD      2     CURRENT TIME STEP:     273     ITERATIONS:       9

 -----------------------------------------------------------------------------------

   CUMULATIVE VOLUMES               L**3   RATES FOR THIS TIME STEP           L**3/T
   ------------------                      ------------------------

                                     IN                                         IN
[...]
   ------------------                      ------------------------

                                     IN                                         IN
                                     --                                         --
        PRECIPITATION =        4.6511D+08          PRECIPITATION =                  
           STREAMFLOW =                               STREAMFLOW =                  
     GW BOUNDARY FLOW =                         GW BOUNDARY FLOW =                  


                                    OUT                                        OUT
                                    ---                                        ---
   EVAPOTRANSPIRATION =        2.8409D+08     EVAPOTRANSPIRATION =          30463.21
           STREAMFLOW =        1.8494D+08             STREAMFLOW =           6864.58
     GW BOUNDARY FLOW =        3740913.76       GW BOUNDARY FLOW =            650.45

   INFLOWS - OUTFLOWS =       -7660930.09     INFLOWS - OUTFLOWS =         -37978.24
             --------                                   --------

 TOTAL STORAGE CHANGE =       -7560021.72         STORAGE CHANGE =         -38007.61
       --------------                             --------------
         LAND SURFACE =          55405.90           LAND SURFACE =          -3487.93
            SOIL ZONE =         183196.55              SOIL ZONE =         -13175.60
     UNSATURATED ZONE =        4927219.49       UNSATURATED ZONE =         -26927.94
       SATURATED ZONE =       -1.2726D+07         SATURATED ZONE =           5583.86

 OVERALL BUDGET ERROR =        -100908.37           BUDGET ERROR =             29.37


  PERCENT DISCREPANCY =             -0.02    PERCENT DISCREPANCY =              0.08



1
 SUMMARY VOLUMETRIC BUDGET FOR GSFLOW 
 DATE: 08 06 1996              CUMULATIVE TIME STEP:    5789
 MODFLOW STRESS PERIOD      2     CURRENT TIME STEP:    5789     ITERATIONS:      15

 -----------------------------------------------------------------------------------

   CUMULATIVE VOLUMES               L**3   RATES FOR THIS TIME STEP           L**3/T
   ------------------                      ------------------------

                                     IN                                         IN
                                     --                                         --
        PRECIPITATION =        4.6511D+08          PRECIPITATION =                  
           STREAMFLOW =                               STREAMFLOW =                  
     GW BOUNDARY FLOW =                         GW BOUNDARY FLOW =                  


                                    OUT                                        OUT
                                    ---                                        ---
   EVAPOTRANSPIRATION =        2.8423D+08     EVAPOTRANSPIRATION =          21522.30
           STREAMFLOW =        1.8499D+08             STREAMFLOW =           6656.22
     GW BOUNDARY FLOW =        3745466.75       GW BOUNDARY FLOW =            650.38

   INFLOWS - OUTFLOWS =       -7859130.42     INFLOWS - OUTFLOWS =         -28828.89
             --------                                   --------

 TOTAL STORAGE CHANGE =       -7758317.85         STORAGE CHANGE =         -28838.59
       --------------                             --------------
         LAND SURFACE =          37062.04           LAND SURFACE =          -2253.66
            SOIL ZONE =         151300.61              SOIL ZONE =          -5568.90
     UNSATURATED ZONE =        4742121.23       UNSATURATED ZONE =         -26039.25
       SATURATED ZONE =       -1.2689D+07         SATURATED ZONE =           5023.21

 OVERALL BUDGET ERROR =        -100812.57           BUDGET ERROR =              9.70


  PERCENT DISCREPANCY =             -0.02    PERCENT DISCREPANCY =              0.03



1
 SUMMARY VOLUMETRIC BUDGET FOR GSFLOW 
 DATE: 08 13 1996              CUMULATIVE TIME STEP:    5796
 MODFLOW STRESS PERIOD      2     CURRENT TIME STEP:    5796     ITERATIONS:      14

 -----------------------------------------------------------------------------------

   CUMULATIVE VOLUMES               L**3   RATES FOR THIS TIME STEP           L**3/T
   ------------------                      ------------------------

                                     IN                                         IN
                                     --                                         --
        PRECIPITATION =        4.6531D+08          PRECIPITATION =          54454.08
           STREAMFLOW =                               STREAMFLOW =                  
     GW BOUNDARY FLOW =                         GW BOUNDARY FLOW =                  


                                    OUT                                        OUT
                                    ---                                        ---
   EVAPOTRANSPIRATION =        2.8441D+08     EVAPOTRANSPIRATION =          31777.98
           STREAMFLOW =        1.8504D+08             STREAMFLOW =           7867.78
     GW BOUNDARY FLOW =        3750018.94       GW BOUNDARY FLOW =            650.33

   INFLOWS - OUTFLOWS =       -7886258.34     INFLOWS - OUTFLOWS =          14157.98
             --------                                   --------

 TOTAL STORAGE CHANGE =       -7785546.10         STORAGE CHANGE =          14143.56
       --------------                             --------------
         LAND SURFACE =          53162.52           LAND SURFACE =          -2312.39
            SOIL ZONE =         253632.13              SOIL ZONE =          37078.27
     UNSATURATED ZONE =        4566259.96       UNSATURATED ZONE =         -24481.61
       SATURATED ZONE =       -1.2659D+07         SATURATED ZONE =           3859.29

 OVERALL BUDGET ERROR =        -100712.24           BUDGET ERROR =             14.43


  PERCENT DISCREPANCY =             -0.02    PERCENT DISCREPANCY =              0.03



1
 SUMMARY VOLUMETRIC BUDGET FOR GSFLOW 
 DATE: 08 20 1996              CUMULATIVE TIME STEP:    5803
 MODFLOW STRESS PERIOD      2     CURRENT TIME STEP:    5803     ITERATIONS:      14

 -----------------------------------------------------------------------------------

   CUMULATIVE VOLUMES               L**3   RATES FOR THIS TIME STEP           L**3/T
   ------------------                      ------------------------

                                     IN                                         IN
                                     --                                         --
        PRECIPITATION =        4.6531D+08          PRECIPITATION =                  
           STREAMFLOW =                               STREAMFLOW =                  
     GW BOUNDARY FLOW =                         GW BOUNDARY FLOW =                  


                                    OUT                                        OUT
                                    ---                                        ---
   EVAPOTRANSPIRATION =        2.8461D+08     EVAPOTRANSPIRATION =          17559.36
           STREAMFLOW =        1.8509D+08             STREAMFLOW =           6458.49
     GW BOUNDARY FLOW =        3754569.61       GW BOUNDARY FLOW =            649.92

   INFLOWS - OUTFLOWS =       -8135362.58     INFLOWS - OUTFLOWS =         -24667.77
             --------                                   --------

 TOTAL STORAGE CHANGE =       -8034769.25         STORAGE CHANGE =         -24682.03
       --------------                             --------------
         LAND SURFACE =           6921.38           LAND SURFACE =          -1297.31
            SOIL ZONE =         194825.19              SOIL ZONE =          -2899.99
     UNSATURATED ZONE =        4399366.86       UNSATURATED ZONE =         -23307.41
       SATURATED ZONE =       -1.2636D+07         SATURATED ZONE =           2822.69

 OVERALL BUDGET ERROR =        -100593.33           BUDGET ERROR =             14.25


  PERCENT DISCREPANCY =             -0.02    PERCENT DISCREPANCY =              0.06



1
 SUMMARY VOLUMETRIC BUDGET FOR GSFLOW 
 DATE: 08 27 1996              CUMULATIVE TIME STEP:    5810
 MODFLOW STRESS PERIOD      2     CURRENT TIME STEP:    5810     ITERATIONS:      12

 -----------------------------------------------------------------------------------

   CUMULATIVE VOLUMES               L**3   RATES FOR THIS TIME STEP           L**3/T
   ------------------                      ------------------------

                                     IN                                         IN
                                     --                                         --
        PRECIPITATION =        4.6531D+08          PRECIPITATION =                  
           STREAMFLOW =                               STREAMFLOW =                  
     GW BOUNDARY FLOW =                         GW BOUNDARY FLOW =                  


                                    OUT                                        OUT
                                    ---                                        ---
   EVAPOTRANSPIRATION =        2.8475D+08     EVAPOTRANSPIRATION =          15675.46
           STREAMFLOW =        1.8513D+08             STREAMFLOW =           6297.14
     GW BOUNDARY FLOW =        3759117.56       GW BOUNDARY FLOW =            649.54

   INFLOWS - OUTFLOWS =       -8324644.16     INFLOWS - OUTFLOWS =         -22622.14
             --------                                   --------

 TOTAL STORAGE CHANGE =       -8224197.93         STORAGE CHANGE =         -22650.12
       --------------                             --------------
         LAND SURFACE =           1243.96           LAND SURFACE =           -271.65
            SOIL ZONE =         153508.57              SOIL ZONE =          -2128.35
     UNSATURATED ZONE =        4240092.49       UNSATURATED ZONE =         -22211.64
       SATURATED ZONE =       -1.2619D+07         SATURATED ZONE =           1961.53

 OVERALL BUDGET ERROR =        -100446.23           BUDGET ERROR =             27.98


  PERCENT DISCREPANCY =             -0.02    PERCENT DISCREPANCY =              0.12



1
 SUMMARY VOLUMETRIC BUDGET FOR GSFLOW 
 DATE: 09 03 1996              CUMULATIVE TIME STEP:    5817
 MODFLOW STRESS PERIOD      2     CURRENT TIME STEP:    5817     ITERATIONS:      12

 -----------------------------------------------------------------------------------

   CUMULATIVE VOLUMES               L**3   RATES FOR THIS TIME STEP           L**3/T
   ------------------                      ------------------------

                                     IN                                         IN
                                     --                                         --
        PRECIPITATION =        4.6531D+08          PRECIPITATION =                  
           STREAMFLOW =                               STREAMFLOW =                  
     GW BOUNDARY FLOW =                         GW BOUNDARY FLOW =                  


                                    OUT                                        OUT
                                    ---                                        ---
   EVAPOTRANSPIRATION =        2.8485D+08     EVAPOTRANSPIRATION =          12599.08
           STREAMFLOW =        1.8517D+08             STREAMFLOW =           6192.54
     GW BOUNDARY FLOW =        3763662.74       GW BOUNDARY FLOW =            649.14

   INFLOWS - OUTFLOWS =       -8479524.34     INFLOWS - OUTFLOWS =         -19440.76
             --------                                   --------

 TOTAL STORAGE CHANGE =       -8379240.80         STORAGE CHANGE =         -19476.04
       --------------                             --------------
         LAND SURFACE =            583.76           LAND SURFACE =            -75.05
            SOIL ZONE =         139913.20              SOIL ZONE =            625.98
     UNSATURATED ZONE =        4085508.26       UNSATURATED ZONE =         -22040.66
       SATURATED ZONE =       -1.2605D+07         SATURATED ZONE =           2013.70

 OVERALL BUDGET ERROR =        -100283.54           BUDGET ERROR =             35.29


  PERCENT DISCREPANCY =             -0.02    PERCENT DISCREPANCY =              0.18



1
 SUMMARY VOLUMETRIC BUDGET FOR GSFLOW 
 DATE: 09 10 1996              CUMULATIVE TIME STEP:    5824
 MODFLOW STRESS PERIOD      2     CURRENT TIME STEP:    5824     ITERATIONS:      12

 -----------------------------------------------------------------------------------

   CUMULATIVE VOLUMES               L**3   RATES FOR THIS TIME STEP           L**3/T
   ------------------                      ------------------------

                                     IN                                         IN
                                     --                                         --
        PRECIPITATION =        4.6531D+08          PRECIPITATION =                  
           STREAMFLOW =                               STREAMFLOW =                  
     GW BOUNDARY FLOW =                         GW BOUNDARY FLOW =                  


                                    OUT                                        OUT
                                    ---                                        ---
   EVAPOTRANSPIRATION =        2.8494D+08     EVAPOTRANSPIRATION =          13596.36
           STREAMFLOW =        1.8522D+08             STREAMFLOW =           6100.36
     GW BOUNDARY FLOW =        3768205.17       GW BOUNDARY FLOW =            648.75

   INFLOWS - OUTFLOWS =       -8612207.86     INFLOWS - OUTFLOWS =         -20345.46
             --------                                   --------

 TOTAL STORAGE CHANGE =       -8512119.54         STORAGE CHANGE =         -20369.40
       --------------                             --------------
         LAND SURFACE =            141.35           LAND SURFACE =            -69.28
            SOIL ZONE =         146739.40              SOIL ZONE =           -502.22
     UNSATURATED ZONE =        3936123.74       UNSATURATED ZONE =         -20892.10
       SATURATED ZONE =       -1.2595D+07         SATURATED ZONE =           1094.21

 OVERALL BUDGET ERROR =        -100088.32           BUDGET ERROR =             23.94


  PERCENT DISCREPANCY =             -0.02    PERCENT DISCREPANCY =              0.12



1
 SUMMARY VOLUMETRIC BUDGET FOR GSFLOW 
 DATE: 09 17 1996              CUMULATIVE TIME STEP:    5831
 MODFLOW STRESS PERIOD      2     CURRENT TIME STEP:    5831     ITERATIONS:      12

 -----------------------------------------------------------------------------------

   CUMULATIVE VOLUMES               L**3   RATES FOR THIS TIME STEP           L**3/T
   ------------------                      ------------------------

                                     IN                                         IN
                                     --                                         --
        PRECIPITATION =        4.6637D+08          PRECIPITATION =                  
           STREAMFLOW =                               STREAMFLOW =                  
     GW BOUNDARY FLOW =                         GW BOUNDARY FLOW =                  


                                    OUT                                        OUT
                                    ---                                        ---
   EVAPOTRANSPIRATION =        2.8512D+08     EVAPOTRANSPIRATION =          58054.02
           STREAMFLOW =        1.8528D+08             STREAMFLOW =          10270.65
     GW BOUNDARY FLOW =        3772746.78       GW BOUNDARY FLOW =            649.14

   INFLOWS - OUTFLOWS =       -7806663.81     INFLOWS - OUTFLOWS =         -68973.81
             --------                                   --------

 TOTAL STORAGE CHANGE =       -7706861.51         STORAGE CHANGE =         -68999.90
       --------------                             --------------
         LAND SURFACE =           3348.24           LAND SURFACE =         -35098.95
            SOIL ZONE =        1084537.28              SOIL ZONE =         -14314.88
     UNSATURATED ZONE =        3794441.90       UNSATURATED ZONE =         -19848.00
       SATURATED ZONE =       -1.2589D+07         SATURATED ZONE =            261.93

 OVERALL BUDGET ERROR =         -99802.30           BUDGET ERROR =             26.09


  PERCENT DISCREPANCY =             -0.02    PERCENT DISCREPANCY =              0.04



1
 SUMMARY VOLUMETRIC BUDGET FOR GSFLOW 
 DATE: 09 24 1996              CUMULATIVE TIME STEP:    5838
 MODFLOW STRESS PERIOD      2     CURRENT TIME STEP:    5838     ITERATIONS:      16

 -----------------------------------------------------------------------------------

   CUMULATIVE VOLUMES               L**3   RATES FOR THIS TIME STEP           L**3/T
   ------------------                      ------------------------

                                     IN                                         IN
                                     --                                         --
        PRECIPITATION =        4.6637D+08          PRECIPITATION =                  
           STREAMFLOW =                               STREAMFLOW =                  
     GW BOUNDARY FLOW =                         GW BOUNDARY FLOW =                  


                                    OUT                                        OUT
                                    ---                                        ---
   EVAPOTRANSPIRATION =        2.8559D+08     EVAPOTRANSPIRATION =          54349.02
           STREAMFLOW =        1.8534D+08             STREAMFLOW =           6704.48
     GW BOUNDARY FLOW =        3777286.79       GW BOUNDARY FLOW =            648.23

   INFLOWS - OUTFLOWS =       -8337953.75     INFLOWS - OUTFLOWS =         -61701.73
             --------                                   --------

 TOTAL STORAGE CHANGE =       -8238320.28         STORAGE CHANGE =         -61709.57
       --------------                             --------------
         LAND SURFACE =                             LAND SURFACE =                  
            SOIL ZONE =         692800.17              SOIL ZONE =         -42321.13
     UNSATURATED ZONE =        3658106.51       UNSATURATED ZONE =         -19207.61
       SATURATED ZONE =       -1.2589D+07         SATURATED ZONE =           -180.83

 OVERALL BUDGET ERROR =         -99633.47           BUDGET ERROR =              7.84


  PERCENT DISCREPANCY =             -0.02    PERCENT DISCREPANCY =              0.01



 Number of time steps:   5844;  Number of non-convergence:   0
 MF iterations:         64655;  SZ iterations:           64586
 Average MF iterations: 11.06;  Average SZ iterations:   11.05
 Maximum MF iterations:    34;  Maximum SZ iterations:      25

mxsziter reached: 15

MF iteration distribution:      0    0    0   39  348  433  810  548  371  430
                              477  397  349  404  315  178  110  127  118  166
                              108   70   25    4    2    1    2    2    3    3
                                0    2    1    1    0    0    0    0    0    0
                                0    0    0    0    0    0    0    0    0    0
                                0    0    0    0    0    0    0    0    0    0
                                0    0    0    0    0    0    0    0    0    0
                                0    0    0    0    0    0    0    0    0    0

SZ computation distribution:    0    0    0   39  348  433  810  548  371  430
                              477  397  349  404  315  178  110  127  118  166
                              108   70   25    4   17    0    0    0    0    0
                                0    0    0    0    0    0    0    0    0    0
                                0    0    0    0    0    0    0    0    0    0
                                0    0    0    0    0    0    0    0    0    0
                                0    0    0    0    0    0    0    0    0    0
                                0    0    0    0    0    0    0    0    0    0

