1
 SUMMARY VOLUMETRIC BUDGET FOR GSFLOW 
 DATE: 10 07 1980              CUMULATIVE TIME STEP:       7
 MODFLOW STRESS PERIOD      2     CURRENT TIME STEP:       7     ITERATIONS:       6

 -----------------------------------------------------------------------------------

   CUMULATIVE VOLUMES               L**3   RATES FOR THIS TIME STEP           L**3/T
   ------------------                      ------------------------

                                     IN                                         IN
                                     --                                         --
        PRECIPITATION =                            PRECIPITATION =                  
           STREAMFLOW =                               STREAMFLOW =                  
     GW BOUNDARY FLOW =                         GW BOUNDARY FLOW =                  


                                    OUT                                        OUT
                                    ---                                        ---
   EVAPOTRANSPIRATION =          63501.87     EVAPOTRANSPIRATION =           9679.38
           STREAMFLOW =          42957.63             STREAMFLOW =           6065.77
     GW BOUNDARY FLOW =           4541.44       GW BOUNDARY FLOW =            648.70

   INFLOWS - OUTFLOWS =        -111000.94     INFLOWS - OUTFLOWS =         -16393.85
             --------                                   --------

 TOTAL STORAGE CHANGE =        -110545.15         STORAGE CHANGE =         -16325.53
       --------------                             --------------
         LAND SURFACE =                             LAND SURFACE =                  
            SOIL ZONE =          47015.18              SOIL ZONE =           6017.04
     UNSATURATED ZONE =        -144777.37       UNSATURATED ZONE =         -20360.11
       SATURATED ZONE =         -12782.96         SATURATED ZONE =          -1982.46

 OVERALL BUDGET ERROR =           -455.78           BUDGET ERROR =            -68.32


  PERCENT DISCREPANCY =             -0.41    PERCENT DISCREPANCY =             -0.42



1
 SUMMARY VOLUMETRIC BUDGET FOR GSFLOW 
 DATE: 10 14 1980              CUMULATIVE TIME STEP:      14
 MODFLOW STRESS PERIOD      2     CURRENT TIME STEP:      14     ITERATIONS:       6

 -----------------------------------------------------------------------------------

   CUMULATIVE VOLUMES               L**3   RATES FOR THIS TIME STEP           L**3/T
   ------------------                      ------------------------

                                     IN                                         IN
                                     --                                         --
        PRECIPITATION =         650779.83          PRECIPITATION =         164754.40
           STREAMFLOW =                               STREAMFLOW =                  
     GW BOUNDARY FLOW =                         GW BOUNDARY FLOW =                  


                                    OUT                                        OUT
                                    ---                                        ---
   EVAPOTRANSPIRATION =         147518.25     EVAPOTRANSPIRATION =           7886.47
           STREAMFLOW =          92677.69             STREAMFLOW =           7494.65
     GW BOUNDARY FLOW =           9082.78       GW BOUNDARY FLOW =            648.89

   INFLOWS - OUTFLOWS =         401501.11     INFLOWS - OUTFLOWS =         148724.38
             --------                                   --------

 TOTAL STORAGE CHANGE =         402471.61         STORAGE CHANGE =         148798.38
       --------------                             --------------
         LAND SURFACE =         277689.24           LAND SURFACE =         136623.45
            SOIL ZONE =         436909.22              SOIL ZONE =          34192.78
     UNSATURATED ZONE =        -284452.37       UNSATURATED ZONE =         -19623.49
       SATURATED ZONE =         -27674.48         SATURATED ZONE =          -2394.36

 OVERALL BUDGET ERROR =           -970.51           BUDGET ERROR =            -73.99


  PERCENT DISCREPANCY =             -0.15    PERCENT DISCREPANCY =             -0.04



1
 SUMMARY VOLUMETRIC BUDGET FOR GSFLOW 
 DATE: 10 21 1980              CUMULATIVE TIME STEP:      21
 MODFLOW STRESS PERIOD      2     CURRENT TIME STEP:      21     ITERATIONS:       6

 -----------------------------------------------------------------------------------

   CUMULATIVE VOLUMES               L**3   RATES FOR THIS TIME STEP           L**3/T
   ------------------                      ------------------------

                                     IN                                         IN
                                     --                                         --
        PRECIPITATION =         733157.03          PRECIPITATION =                  
           STREAMFLOW =                               STREAMFLOW =                  
     GW BOUNDARY FLOW =                         GW BOUNDARY FLOW =                  


                                    OUT                                        OUT
                                    ---                                        ---
   EVAPOTRANSPIRATION =         373106.44     EVAPOTRANSPIRATION =          36446.75
           STREAMFLOW =         144889.97             STREAMFLOW =           7105.83
     GW BOUNDARY FLOW =          13624.56       GW BOUNDARY FLOW =            648.77

   INFLOWS - OUTFLOWS =         201536.05     INFLOWS - OUTFLOWS =         -44201.35
             --------                                   --------

 TOTAL STORAGE CHANGE =         203016.16         STORAGE CHANGE =         -44120.61
       --------------                             --------------
         LAND SURFACE =           2250.88           LAND SURFACE =          -3153.72
            SOIL ZONE =         665732.84              SOIL ZONE =         -19175.28
     UNSATURATED ZONE =        -418622.05       UNSATURATED ZONE =         -18801.05
       SATURATED ZONE =         -46345.52         SATURATED ZONE =          -2990.56

 OVERALL BUDGET ERROR =          -1480.10           BUDGET ERROR =            -80.74


  PERCENT DISCREPANCY =             -0.20    PERCENT DISCREPANCY =             -0.18



1
 SUMMARY VOLUMETRIC BUDGET FOR GSFLOW 
 DATE: 10 28 1980              CUMULATIVE TIME STEP:      28
 MODFLOW STRESS PERIOD      2     CURRENT TIME STEP:      28     ITERATIONS:       6

 -----------------------------------------------------------------------------------

   CUMULATIVE VOLUMES               L**3   RATES FOR THIS TIME STEP           L**3/T
   ------------------                      ------------------------

                                     IN                                         IN
                                     --                                         --
        PRECIPITATION =        1070903.53          PRECIPITATION =                  
           STREAMFLOW =                               STREAMFLOW =                  
     GW BOUNDARY FLOW =                         GW BOUNDARY FLOW =                  


                                    OUT                                        OUT
                                    ---                                        ---
   EVAPOTRANSPIRATION =         550293.48     EVAPOTRANSPIRATION =          23594.60
           STREAMFLOW =         199840.09             STREAMFLOW =           7989.28
     GW BOUNDARY FLOW =          18165.91       GW BOUNDARY FLOW =            648.81

   INFLOWS - OUTFLOWS =         302604.04     INFLOWS - OUTFLOWS =         -32232.69
             --------                                   --------

 TOTAL STORAGE CHANGE =         304655.44         STORAGE CHANGE =         -32146.01
       --------------                             --------------
         LAND SURFACE =          24619.51           LAND SURFACE =         -30948.99
            SOIL ZONE =         896178.85              SOIL ZONE =          20270.80
     UNSATURATED ZONE =        -547225.19       UNSATURATED ZONE =         -17994.12
       SATURATED ZONE =         -68917.73         SATURATED ZONE =          -3473.70

 OVERALL BUDGET ERROR =          -2051.40           BUDGET ERROR =            -86.68


  PERCENT DISCREPANCY =             -0.19    PERCENT DISCREPANCY =             -0.27



1
 SUMMARY VOLUMETRIC BUDGET FOR GSFLOW 
 DATE: 11 04 1980              CUMULATIVE TIME STEP:      35
 MODFLOW STRESS PERIOD      2     CURRENT TIME STEP:      35     ITERATIONS:       8

 -----------------------------------------------------------------------------------

   CUMULATIVE VOLUMES               L**3   RATES FOR THIS TIME STEP           L**3/T
   ------------------                      ------------------------

                                     IN                                         IN
                                     --                                         --
        PRECIPITATION =        1070903.53          PRECIPITATION =                  
           STREAMFLOW =                               STREAMFLOW =                  
     GW BOUNDARY FLOW =                         GW BOUNDARY FLOW =                  


                                    OUT                                        OUT
                                    ---                                        ---
   EVAPOTRANSPIRATION =         825640.59     EVAPOTRANSPIRATION =          34462.04
           STREAMFLOW =         252307.78             STREAMFLOW =           7018.29
     GW BOUNDARY FLOW =          22706.92       GW BOUNDARY FLOW =            648.64

   INFLOWS - OUTFLOWS =         -29751.76     INFLOWS - OUTFLOWS =         -42128.98
             --------                                   --------

 TOTAL STORAGE CHANGE =         -27209.61         STORAGE CHANGE =         -42066.79
       --------------                             --------------
         LAND SURFACE =                             LAND SURFACE =                  
            SOIL ZONE =         739547.34              SOIL ZONE =         -20540.97
     UNSATURATED ZONE =        -670653.09       UNSATURATED ZONE =         -17361.18
       SATURATED ZONE =         -96103.86         SATURATED ZONE =          -4164.65

 OVERALL BUDGET ERROR =          -2542.15           BUDGET ERROR =            -62.19


  PERCENT DISCREPANCY =             -0.23    PERCENT DISCREPANCY =             -0.15



1
 SUMMARY VOLUMETRIC BUDGET FOR GSFLOW 
 DATE: 11 11 1980              CUMULATIVE TIME STEP:      42
 MODFLOW STRESS PERIOD      2     CURRENT TIME STEP:      42     ITERATIONS:       7

 -----------------------------------------------------------------------------------

   CUMULATIVE VOLUMES               L**3   RATES FOR THIS TIME STEP           L**3/T
   ------------------                      ------------------------

                                     IN                                         IN
                                     --                                         --
        PRECIPITATION =        1573762.54          PRECIPITATION =         255182.19
           STREAMFLOW =                               STREAMFLOW =                  
     GW BOUNDARY FLOW =                         GW BOUNDARY FLOW =                  


                                    OUT                                        OUT
                                    ---                                        ---
   EVAPOTRANSPIRATION =        1024607.65     EVAPOTRANSPIRATION =          14645.81
           STREAMFLOW =         308284.00             STREAMFLOW =          10773.72
     GW BOUNDARY FLOW =          27247.64       GW BOUNDARY FLOW =            648.84

   INFLOWS - OUTFLOWS =         213623.26     INFLOWS - OUTFLOWS =         229113.81
             --------                                   --------

 TOTAL STORAGE CHANGE =         216710.95         STORAGE CHANGE =         229178.44
       --------------                             --------------
         LAND SURFACE =          78612.95           LAND SURFACE =          76659.87
            SOIL ZONE =        1053403.86              SOIL ZONE =         173142.32
     UNSATURATED ZONE =        -789255.30       UNSATURATED ZONE =         -16535.15
       SATURATED ZONE =        -126050.56         SATURATED ZONE =          -4088.60

 OVERALL BUDGET ERROR =          -3087.69           BUDGET ERROR =            -64.63


  PERCENT DISCREPANCY =             -0.20    PERCENT DISCREPANCY =             -0.03



1
 SUMMARY VOLUMETRIC BUDGET FOR GSFLOW 
 DATE: 11 18 1980              CUMULATIVE TIME STEP:      49
 MODFLOW STRESS PERIOD      2     CURRENT TIME STEP:      49     ITERATIONS:       7

 -----------------------------------------------------------------------------------

   CUMULATIVE VOLUMES               L**3   RATES FOR THIS TIME STEP           L**3/T
   ------------------                      ------------------------

                                     IN                                         IN
                                     --                                         --
        PRECIPITATION =        1573762.54          PRECIPITATION =                  
           STREAMFLOW =                               STREAMFLOW =                  
     GW BOUNDARY FLOW =                         GW BOUNDARY FLOW =                  


                                    OUT                                        OUT
                                    ---                                        ---
   EVAPOTRANSPIRATION =        1113098.49     EVAPOTRANSPIRATION =          16687.22
           STREAMFLOW =         371225.42             STREAMFLOW =           9364.74
     GW BOUNDARY FLOW =          31789.52       GW BOUNDARY FLOW =            648.86

   INFLOWS - OUTFLOWS =          57649.11     INFLOWS - OUTFLOWS =         -26700.82
             --------                                   --------

 TOTAL STORAGE CHANGE =          61344.89         STORAGE CHANGE =         -26624.82
       --------------                             --------------
         LAND SURFACE =           8654.86           LAND SURFACE =          -6203.23
            SOIL ZONE =        1114556.45              SOIL ZONE =            419.12
     UNSATURATED ZONE =        -903158.34       UNSATURATED ZONE =         -16016.65
       SATURATED ZONE =        -158708.08         SATURATED ZONE =          -4824.06

 OVERALL BUDGET ERROR =          -3695.77           BUDGET ERROR =            -76.00


  PERCENT DISCREPANCY =             -0.23    PERCENT DISCREPANCY =             -0.29



1
 SUMMARY VOLUMETRIC BUDGET FOR GSFLOW 
 DATE: 11 25 1980              CUMULATIVE TIME STEP:      56
 MODFLOW STRESS PERIOD      2     CURRENT TIME STEP:      56     ITERATIONS:       8

 -----------------------------------------------------------------------------------

   CUMULATIVE VOLUMES               L**3   RATES FOR THIS TIME STEP           L**3/T
   ------------------                      ------------------------

                                     IN                                         IN
                                     --                                         --
        PRECIPITATION =        1648816.13          PRECIPITATION =                  
           STREAMFLOW =                               STREAMFLOW =                  
     GW BOUNDARY FLOW =                         GW BOUNDARY FLOW =                  


                                    OUT                                        OUT
                                    ---                                        ---
   EVAPOTRANSPIRATION =        1185739.12     EVAPOTRANSPIRATION =           8792.25
           STREAMFLOW =         438528.82             STREAMFLOW =           9976.05
     GW BOUNDARY FLOW =          36331.82       GW BOUNDARY FLOW =            648.94

   INFLOWS - OUTFLOWS =         -11783.62     INFLOWS - OUTFLOWS =         -19417.23
             --------                                   --------

 TOTAL STORAGE CHANGE =          -7554.64         STORAGE CHANGE =         -19352.92
       --------------                             --------------
         LAND SURFACE =          55166.83           LAND SURFACE =          -8744.58
            SOIL ZONE =        1144799.59              SOIL ZONE =          10128.28
     UNSATURATED ZONE =       -1012779.74       UNSATURATED ZONE =         -15405.64
       SATURATED ZONE =        -194741.32         SATURATED ZONE =          -5330.99

 OVERALL BUDGET ERROR =          -4228.99           BUDGET ERROR =            -64.31


  PERCENT DISCREPANCY =             -0.25    PERCENT DISCREPANCY =             -0.33



1
 SUMMARY VOLUMETRIC BUDGET FOR GSFLOW 
 DATE: 12 02 1980              CUMULATIVE TIME STEP:      63
 MODFLOW STRESS PERIOD      2     CURRENT TIME STEP:      63     ITERATIONS:       8

 -----------------------------------------------------------------------------------

   CUMULATIVE VOLUMES               L**3   RATES FOR THIS TIME STEP           L**3/T
   ------------------                      ------------------------

                                     IN                                         IN
                                     --                                         --
        PRECIPITATION =        2076621.55          PRECIPITATION =                  
           STREAMFLOW =                               STREAMFLOW =                  
     GW BOUNDARY FLOW =                         GW BOUNDARY FLOW =                  


                                    OUT                                        OUT
                                    ---                                        ---
   EVAPOTRANSPIRATION =        1375200.82     EVAPOTRANSPIRATION =          33951.94
           STREAMFLOW =         523919.33             STREAMFLOW =          15368.05
     GW BOUNDARY FLOW =          40875.80       GW BOUNDARY FLOW =            649.45

   INFLOWS - OUTFLOWS =         136625.61     INFLOWS - OUTFLOWS =         -49969.44
             --------                                   --------

 TOTAL STORAGE CHANGE =         141297.07         STORAGE CHANGE =         -49917.93
       --------------                             --------------
         LAND SURFACE =         152551.10           LAND SURFACE =         -75205.42
            SOIL ZONE =        1333562.23              SOIL ZONE =          42839.21
     UNSATURATED ZONE =       -1114204.23       UNSATURATED ZONE =         -12953.88
       SATURATED ZONE =        -230612.03         SATURATED ZONE =          -4597.84

 OVERALL BUDGET ERROR =          -4671.47           BUDGET ERROR =            -51.51


  PERCENT DISCREPANCY =             -0.22    PERCENT DISCREPANCY =             -0.10



1
 SUMMARY VOLUMETRIC BUDGET FOR GSFLOW 
 DATE: 12 09 1980              CUMULATIVE TIME STEP:      70
 MODFLOW STRESS PERIOD      2     CURRENT TIME STEP:      70     ITERATIONS:       8

 -----------------------------------------------------------------------------------

   CUMULATIVE VOLUMES               L**3   RATES FOR THIS TIME STEP           L**3/T
   ------------------                      ------------------------

                                     IN                                         IN
                                     --                                         --
        PRECIPITATION =        4284363.63          PRECIPITATION =                  
           STREAMFLOW =                               STREAMFLOW =                  
     GW BOUNDARY FLOW =                         GW BOUNDARY FLOW =                  


                                    OUT                                        OUT
                                    ---                                        ---
   EVAPOTRANSPIRATION =        1398619.18     EVAPOTRANSPIRATION =           2942.43
           STREAMFLOW =         624566.59             STREAMFLOW =          14710.47
     GW BOUNDARY FLOW =          45422.80       GW BOUNDARY FLOW =            649.67

   INFLOWS - OUTFLOWS =        2215755.05     INFLOWS - OUTFLOWS =         -18302.57
             --------                                   --------

 TOTAL STORAGE CHANGE =        2220885.93         STORAGE CHANGE =         -18250.95
       --------------                             --------------
         LAND SURFACE =        2335216.87           LAND SURFACE =          -2942.43
            SOIL ZONE =        1367918.88              SOIL ZONE =           4916.76
     UNSATURATED ZONE =       -1212495.90       UNSATURATED ZONE =         -14224.41
       SATURATED ZONE =        -269753.92         SATURATED ZONE =          -6000.87

 OVERALL BUDGET ERROR =          -5130.88           BUDGET ERROR =            -51.61


  PERCENT DISCREPANCY =             -0.12    PERCENT DISCREPANCY =             -0.28



1
 SUMMARY VOLUMETRIC BUDGET FOR GSFLOW 
 DATE: 12 16 1980              CUMULATIVE TIME STEP:      77
 MODFLOW STRESS PERIOD      2     CURRENT TIME STEP:      77     ITERATIONS:       7

 -----------------------------------------------------------------------------------

   CUMULATIVE VOLUMES               L**3   RATES FOR THIS TIME STEP           L**3/T
   ------------------                      ------------------------

                                     IN                                         IN
                                     --                                         --
        PRECIPITATION =        4284363.63          PRECIPITATION =                  
           STREAMFLOW =                               STREAMFLOW =                  
     GW BOUNDARY FLOW =                         GW BOUNDARY FLOW =                  


                                    OUT                                        OUT
                                    ---                                        ---
   EVAPOTRANSPIRATION =        1540613.08     EVAPOTRANSPIRATION =          33883.35
           STREAMFLOW =         746423.53             STREAMFLOW =          25216.11
     GW BOUNDARY FLOW =          49971.61       GW BOUNDARY FLOW =            650.27

   INFLOWS - OUTFLOWS =        1947355.41     INFLOWS - OUTFLOWS =         -59749.74
             --------                                   --------

 TOTAL STORAGE CHANGE =        1952917.52         STORAGE CHANGE =         -59684.47
       --------------                             --------------
         LAND SURFACE =        2023939.67           LAND SURFACE =        -129021.52
            SOIL ZONE =        1541255.40              SOIL ZONE =          82705.70
     UNSATURATED ZONE =       -1302229.42       UNSATURATED ZONE =          -8985.79
       SATURATED ZONE =        -310048.13         SATURATED ZONE =          -4382.87

 OVERALL BUDGET ERROR =          -5562.11           BUDGET ERROR =            -65.26


  PERCENT DISCREPANCY =             -0.13    PERCENT DISCREPANCY =             -0.11



1
 SUMMARY VOLUMETRIC BUDGET FOR GSFLOW 
 DATE: 12 23 1980              CUMULATIVE TIME STEP:      84
 MODFLOW STRESS PERIOD      2     CURRENT TIME STEP:      84     ITERATIONS:       9

 -----------------------------------------------------------------------------------

   CUMULATIVE VOLUMES               L**3   RATES FOR THIS TIME STEP           L**3/T
   ------------------                      ------------------------

                                     IN                                         IN
                                     --                                         --
        PRECIPITATION =        4516757.54          PRECIPITATION =                  
           STREAMFLOW =                               STREAMFLOW =                  
     GW BOUNDARY FLOW =                         GW BOUNDARY FLOW =                  


                                    OUT                                        OUT
                                    ---                                        ---
   EVAPOTRANSPIRATION =        1746655.23     EVAPOTRANSPIRATION =          35140.32
           STREAMFLOW =         975468.04             STREAMFLOW =          30480.16
     GW BOUNDARY FLOW =          54532.14       GW BOUNDARY FLOW =            651.94

   INFLOWS - OUTFLOWS =        1740102.13     INFLOWS - OUTFLOWS =         -66272.42
             --------                                   --------

 TOTAL STORAGE CHANGE =        1745984.20         STORAGE CHANGE =         -66234.60
       --------------                             --------------
         LAND SURFACE =        1433268.50           LAND SURFACE =         -48191.47
            SOIL ZONE =        1993543.95              SOIL ZONE =          -8134.02
     UNSATURATED ZONE =       -1342656.02       UNSATURATED ZONE =          -5276.27
       SATURATED ZONE =        -338172.22         SATURATED ZONE =          -4632.83

 OVERALL BUDGET ERROR =          -5882.07           BUDGET ERROR =            -37.83


  PERCENT DISCREPANCY =             -0.13    PERCENT DISCREPANCY =             -0.06



1
 SUMMARY VOLUMETRIC BUDGET FOR GSFLOW 
 DATE: 12 30 1980              CUMULATIVE TIME STEP:      91
 MODFLOW STRESS PERIOD      2     CURRENT TIME STEP:      91     ITERATIONS:      11

 -----------------------------------------------------------------------------------

   CUMULATIVE VOLUMES               L**3   RATES FOR THIS TIME STEP           L**3/T
   ------------------                      ------------------------

                                     IN                                         IN
                                     --                                         --
        PRECIPITATION =        4516757.54          PRECIPITATION =                  
           STREAMFLOW =                               STREAMFLOW =                  
     GW BOUNDARY FLOW =                         GW BOUNDARY FLOW =                  


                                    OUT                                        OUT
                                    ---                                        ---
   EVAPOTRANSPIRATION =        2107287.74     EVAPOTRANSPIRATION =          45887.78
           STREAMFLOW =        1224104.98             STREAMFLOW =          27636.30
     GW BOUNDARY FLOW =          59099.13       GW BOUNDARY FLOW =            652.41

   INFLOWS - OUTFLOWS =        1126265.69     INFLOWS - OUTFLOWS =         -74176.49
             --------                                   --------

 TOTAL STORAGE CHANGE =        1132316.38         STORAGE CHANGE =         -74149.76
       --------------                             --------------
         LAND SURFACE =         641159.81           LAND SURFACE =         -40370.17
            SOIL ZONE =        2204218.20              SOIL ZONE =         -24674.33
     UNSATURATED ZONE =       -1350202.36       UNSATURATED ZONE =          -4990.50
       SATURATED ZONE =        -362859.27         SATURATED ZONE =          -4114.75

 OVERALL BUDGET ERROR =          -6050.69           BUDGET ERROR =            -26.73


  PERCENT DISCREPANCY =             -0.13    PERCENT DISCREPANCY =             -0.04



1
 SUMMARY VOLUMETRIC BUDGET FOR GSFLOW 
 DATE: 01 06 1981              CUMULATIVE TIME STEP:      98
 MODFLOW STRESS PERIOD      2     CURRENT TIME STEP:      98     ITERATIONS:       8

 -----------------------------------------------------------------------------------

   CUMULATIVE VOLUMES               L**3   RATES FOR THIS TIME STEP           L**3/T
   ------------------                      ------------------------

                                     IN                                         IN
                                     --                                         --
        PRECIPITATION =        5004445.43          PRECIPITATION =                  
           STREAMFLOW =                               STREAMFLOW =                  
     GW BOUNDARY FLOW =                         GW BOUNDARY FLOW =                  


                                    OUT                                        OUT
                                    ---                                        ---
   EVAPOTRANSPIRATION =        2335212.49     EVAPOTRANSPIRATION =          21388.78
           STREAMFLOW =        1379711.81             STREAMFLOW =          21364.72
     GW BOUNDARY FLOW =          63660.90       GW BOUNDARY FLOW =            651.28

   INFLOWS - OUTFLOWS =        1225860.23     INFLOWS - OUTFLOWS =         -43404.77
             --------                                   --------

 TOTAL STORAGE CHANGE =        1232122.30         STORAGE CHANGE =         -43366.93
       --------------                             --------------
         LAND SURFACE =         837080.27           LAND SURFACE =         -30417.06
            SOIL ZONE =        2210204.45              SOIL ZONE =           2615.73
     UNSATURATED ZONE =       -1415106.48       UNSATURATED ZONE =          -9926.84
       SATURATED ZONE =        -400055.95         SATURATED ZONE =          -5638.77

 OVERALL BUDGET ERROR =          -6262.07           BUDGET ERROR =            -37.84


  PERCENT DISCREPANCY =             -0.13    PERCENT DISCREPANCY =             -0.09



1
 SUMMARY VOLUMETRIC BUDGET FOR GSFLOW 
 DATE: 01 13 1981              CUMULATIVE TIME STEP:     105
 MODFLOW STRESS PERIOD      2     CURRENT TIME STEP:     105     ITERATIONS:       7

 -----------------------------------------------------------------------------------

   CUMULATIVE VOLUMES               L**3   RATES FOR THIS TIME STEP           L**3/T
   ------------------                      ------------------------

                                     IN                                         IN
                                     --                                         --
        PRECIPITATION =        5004445.43          PRECIPITATION =                  
           STREAMFLOW =                               STREAMFLOW =                  
     GW BOUNDARY FLOW =                         GW BOUNDARY FLOW =                  


                                    OUT                                        OUT
                                    ---                                        ---
   EVAPOTRANSPIRATION =        2552722.57     EVAPOTRANSPIRATION =          44453.93
           STREAMFLOW =        1528645.06             STREAMFLOW =          20147.49
     GW BOUNDARY FLOW =          68218.18       GW BOUNDARY FLOW =            650.85

   INFLOWS - OUTFLOWS =         854859.62     INFLOWS - OUTFLOWS =         -65252.27
             --------                                   --------

 TOTAL STORAGE CHANGE =         861492.40         STORAGE CHANGE =         -65188.67
       --------------                             --------------
         LAND SURFACE =         626702.00           LAND SURFACE =         -38991.59
            SOIL ZONE =        2156500.76              SOIL ZONE =         -10593.54
     UNSATURATED ZONE =       -1478929.68       UNSATURATED ZONE =          -9118.92
       SATURATED ZONE =        -442780.69         SATURATED ZONE =          -6484.62

 OVERALL BUDGET ERROR =          -6632.78           BUDGET ERROR =            -63.60


  PERCENT DISCREPANCY =             -0.13    PERCENT DISCREPANCY =             -0.10



1
 SUMMARY VOLUMETRIC BUDGET FOR GSFLOW 
 DATE: 01 20 1981              CUMULATIVE TIME STEP:     112
 MODFLOW STRESS PERIOD      2     CURRENT TIME STEP:     112     ITERATIONS:       7

 -----------------------------------------------------------------------------------

   CUMULATIVE VOLUMES               L**3   RATES FOR THIS TIME STEP           L**3/T
   ------------------                      ------------------------

                                     IN                                         IN
                                     --                                         --
        PRECIPITATION =        5170466.84          PRECIPITATION =          41505.35
           STREAMFLOW =                               STREAMFLOW =                  
     GW BOUNDARY FLOW =                         GW BOUNDARY FLOW =                  


                                    OUT                                        OUT
                                    ---                                        ---
   EVAPOTRANSPIRATION =        2833971.55     EVAPOTRANSPIRATION =          34835.17
           STREAMFLOW =        1671216.82             STREAMFLOW =          20265.61
     GW BOUNDARY FLOW =          72773.11       GW BOUNDARY FLOW =            650.66

   INFLOWS - OUTFLOWS =         592505.36     INFLOWS - OUTFLOWS =         -14246.09
             --------                                   --------

 TOTAL STORAGE CHANGE =         599465.11         STORAGE CHANGE =         -14191.81
       --------------                             --------------
         LAND SURFACE =         436285.42           LAND SURFACE =           4326.68
            SOIL ZONE =        2159439.72              SOIL ZONE =         -10241.27
     UNSATURATED ZONE =       -1509552.78       UNSATURATED ZONE =          -1785.44
       SATURATED ZONE =        -486707.25         SATURATED ZONE =          -6491.78

 OVERALL BUDGET ERROR =          -6959.75           BUDGET ERROR =            -54.28


  PERCENT DISCREPANCY =             -0.13    PERCENT DISCREPANCY =             -0.10



1
 SUMMARY VOLUMETRIC BUDGET FOR GSFLOW 
 DATE: 01 27 1981              CUMULATIVE TIME STEP:     119
 MODFLOW STRESS PERIOD      2     CURRENT TIME STEP:     119     ITERATIONS:       9

 -----------------------------------------------------------------------------------

   CUMULATIVE VOLUMES               L**3   RATES FOR THIS TIME STEP           L**3/T
   ------------------                      ------------------------

                                     IN                                         IN
                                     --                                         --
        PRECIPITATION =        8646540.08          PRECIPITATION =        2936503.63
           STREAMFLOW =                               STREAMFLOW =                  
     GW BOUNDARY FLOW =                         GW BOUNDARY FLOW =                  


                                    OUT                                        OUT
                                    ---                                        ---
   EVAPOTRANSPIRATION =        3067737.57     EVAPOTRANSPIRATION =          13120.97
           STREAMFLOW =        1817612.31             STREAMFLOW =          18747.10
     GW BOUNDARY FLOW =          77327.59       GW BOUNDARY FLOW =            650.46

   INFLOWS - OUTFLOWS =        3683862.60     INFLOWS - OUTFLOWS =        2903985.11
             --------                                   --------

 TOTAL STORAGE CHANGE =        3691002.67         STORAGE CHANGE =        2904007.83
       --------------                             --------------
         LAND SURFACE =        3540180.85           LAND SURFACE =        2923352.24
            SOIL ZONE =        2180467.81              SOIL ZONE =          -7861.41
     UNSATURATED ZONE =       -1498407.40       UNSATURATED ZONE =          -4737.91
       SATURATED ZONE =        -531238.59         SATURATED ZONE =          -6745.09

 OVERALL BUDGET ERROR =          -7140.06           BUDGET ERROR =            -22.72


  PERCENT DISCREPANCY =             -0.08    PERCENT DISCREPANCY =             -0.00



1
 SUMMARY VOLUMETRIC BUDGET FOR GSFLOW 
 DATE: 02 03 1981              CUMULATIVE TIME STEP:     126
 MODFLOW STRESS PERIOD      2     CURRENT TIME STEP:     126     ITERATIONS:       9

 -----------------------------------------------------------------------------------

   CUMULATIVE VOLUMES               L**3   RATES FOR THIS TIME STEP           L**3/T
   ------------------                      ------------------------

                                     IN                                         IN
                                     --                                         --
        PRECIPITATION =        1.1739D+07          PRECIPITATION =                  
           STREAMFLOW =                               STREAMFLOW =                  
     GW BOUNDARY FLOW =                         GW BOUNDARY FLOW =                  


                                    OUT                                        OUT
                                    ---                                        ---
   EVAPOTRANSPIRATION =        3104250.61     EVAPOTRANSPIRATION =           6975.48
           STREAMFLOW =        1944621.37             STREAMFLOW =          18014.91
     GW BOUNDARY FLOW =          81879.77       GW BOUNDARY FLOW =            650.26

   INFLOWS - OUTFLOWS =        6607937.02     INFLOWS - OUTFLOWS =         -25640.65
             --------                                   --------

 TOTAL STORAGE CHANGE =        6615227.30         STORAGE CHANGE =         -25621.05
       --------------                             --------------
         LAND SURFACE =        6595816.50           LAND SURFACE =          -6975.48
            SOIL ZONE =        2169018.39              SOIL ZONE =            420.58
     UNSATURATED ZONE =       -1567275.46       UNSATURATED ZONE =         -11417.18
       SATURATED ZONE =        -582332.13         SATURATED ZONE =          -7648.97

 OVERALL BUDGET ERROR =          -7290.28           BUDGET ERROR =            -19.60


  PERCENT DISCREPANCY =             -0.06    PERCENT DISCREPANCY =             -0.08



1
 SUMMARY VOLUMETRIC BUDGET FOR GSFLOW 
 DATE: 02 10 1981              CUMULATIVE TIME STEP:     133
 MODFLOW STRESS PERIOD      2     CURRENT TIME STEP:     133     ITERATIONS:       7

 -----------------------------------------------------------------------------------

   CUMULATIVE VOLUMES               L**3   RATES FOR THIS TIME STEP           L**3/T
   ------------------                      ------------------------

                                     IN                                         IN
                                     --                                         --
        PRECIPITATION =        1.1838D+07          PRECIPITATION =                  
           STREAMFLOW =                               STREAMFLOW =                  
     GW BOUNDARY FLOW =                         GW BOUNDARY FLOW =                  


                                    OUT                                        OUT
                                    ---                                        ---
   EVAPOTRANSPIRATION =        3229651.67     EVAPOTRANSPIRATION =          32880.06
           STREAMFLOW =        2070944.25             STREAMFLOW =          18066.73
     GW BOUNDARY FLOW =          86431.56       GW BOUNDARY FLOW =            650.25

   INFLOWS - OUTFLOWS =        6451225.80     INFLOWS - OUTFLOWS =         -51597.03
             --------                                   --------

 TOTAL STORAGE CHANGE =        6458828.71         STORAGE CHANGE =         -51537.25
       --------------                             --------------
         LAND SURFACE =        6569979.95           LAND SURFACE =         -32880.06
            SOIL ZONE =        2173149.78              SOIL ZONE =            561.09
     UNSATURATED ZONE =       -1645785.27       UNSATURATED ZONE =         -10843.13
       SATURATED ZONE =        -638515.75         SATURATED ZONE =          -8375.15

 OVERALL BUDGET ERROR =          -7602.92           BUDGET ERROR =            -59.78


  PERCENT DISCREPANCY =             -0.06    PERCENT DISCREPANCY =             -0.12



1
 SUMMARY VOLUMETRIC BUDGET FOR GSFLOW 
 DATE: 02 17 1981              CUMULATIVE TIME STEP:     140
 MODFLOW STRESS PERIOD      2     CURRENT TIME STEP:     140     ITERATIONS:      14

 -----------------------------------------------------------------------------------

   CUMULATIVE VOLUMES               L**3   RATES FOR THIS TIME STEP           L**3/T
   ------------------                      ------------------------

                                     IN                                         IN
                                     --                                         --
        PRECIPITATION =        1.2765D+07          PRECIPITATION =          68929.28
           STREAMFLOW =                               STREAMFLOW =                  
     GW BOUNDARY FLOW =                         GW BOUNDARY FLOW =                  


                                    OUT                                        OUT
                                    ---                                        ---
   EVAPOTRANSPIRATION =        3567749.47     EVAPOTRANSPIRATION =          68607.56
           STREAMFLOW =        2616674.43             STREAMFLOW =         125638.82
     GW BOUNDARY FLOW =          91005.54       GW BOUNDARY FLOW =            656.87

   INFLOWS - OUTFLOWS =        6489539.67     INFLOWS - OUTFLOWS =        -125973.98
             --------                                   --------

 TOTAL STORAGE CHANGE =        6497412.91         STORAGE CHANGE =        -125959.92
       --------------                             --------------
         LAND SURFACE =        5590061.12           LAND SURFACE =        -278671.93
            SOIL ZONE =        2961591.22              SOIL ZONE =          72159.94
     UNSATURATED ZONE =       -1400075.36       UNSATURATED ZONE =          77968.69
       SATURATED ZONE =        -654164.07         SATURATED ZONE =           2583.38

 OVERALL BUDGET ERROR =          -7873.25           BUDGET ERROR =            -14.05


  PERCENT DISCREPANCY =             -0.06    PERCENT DISCREPANCY =             -0.01



1
 SUMMARY VOLUMETRIC BUDGET FOR GSFLOW 
 DATE: 02 24 1981              CUMULATIVE TIME STEP:     147
 MODFLOW STRESS PERIOD      2     CURRENT TIME STEP:     147     ITERATIONS:      14

 -----------------------------------------------------------------------------------

   CUMULATIVE VOLUMES               L**3   RATES FOR THIS TIME STEP           L**3/T
   ------------------                      ------------------------

                                     IN                                         IN
                                     --                                         --
        PRECIPITATION =        1.3179D+07          PRECIPITATION =         344646.37
           STREAMFLOW =                               STREAMFLOW =                  
     GW BOUNDARY FLOW =                         GW BOUNDARY FLOW =                  


                                    OUT                                        OUT
                                    ---                                        ---
   EVAPOTRANSPIRATION =        3909071.06     EVAPOTRANSPIRATION =          18832.76
           STREAMFLOW =        3176756.82             STREAMFLOW =          52180.29
     GW BOUNDARY FLOW =          95598.81       GW BOUNDARY FLOW =            655.15

   INFLOWS - OUTFLOWS =        5997118.07     INFLOWS - OUTFLOWS =         272978.17
             --------                                   --------

 TOTAL STORAGE CHANGE =        6004943.18         STORAGE CHANGE =         272974.62
       --------------                             --------------
         LAND SURFACE =        4984244.22           LAND SURFACE =         286368.61
            SOIL ZONE =        2698138.01              SOIL ZONE =         -43302.29
     UNSATURATED ZONE =       -1047574.78       UNSATURATED ZONE =          27487.82
       SATURATED ZONE =        -629864.27         SATURATED ZONE =           2420.48

 OVERALL BUDGET ERROR =          -7825.11           BUDGET ERROR =              3.55


  PERCENT DISCREPANCY =             -0.06    PERCENT DISCREPANCY =              0.00



1
 SUMMARY VOLUMETRIC BUDGET FOR GSFLOW 
 DATE: 03 03 1981              CUMULATIVE TIME STEP:     154
 MODFLOW STRESS PERIOD      2     CURRENT TIME STEP:     154     ITERATIONS:      11

 -----------------------------------------------------------------------------------

   CUMULATIVE VOLUMES               L**3   RATES FOR THIS TIME STEP           L**3/T
   ------------------                      ------------------------

                                     IN                                         IN
                                     --                                         --
        PRECIPITATION =        1.3447D+07          PRECIPITATION =                  
           STREAMFLOW =                               STREAMFLOW =                  
     GW BOUNDARY FLOW =                         GW BOUNDARY FLOW =                  


                                    OUT                                        OUT
                                    ---                                        ---
   EVAPOTRANSPIRATION =        4069753.79     EVAPOTRANSPIRATION =          45353.75
           STREAMFLOW =        3401122.31             STREAMFLOW =          27810.21
     GW BOUNDARY FLOW =         100171.78       GW BOUNDARY FLOW =            652.32

   INFLOWS - OUTFLOWS =        5875555.16     INFLOWS - OUTFLOWS =         -73816.28
             --------                                   --------

 TOTAL STORAGE CHANGE =        5883264.49         STORAGE CHANGE =         -73831.39
       --------------                             --------------
         LAND SURFACE =        5068137.31           LAND SURFACE =         -66041.98
            SOIL ZONE =        2489693.18              SOIL ZONE =           2873.41
     UNSATURATED ZONE =       -1041086.28       UNSATURATED ZONE =          -8824.33
       SATURATED ZONE =        -633479.72         SATURATED ZONE =          -1838.50

 OVERALL BUDGET ERROR =          -7709.33           BUDGET ERROR =             15.11


  PERCENT DISCREPANCY =             -0.06    PERCENT DISCREPANCY =              0.02



1
 SUMMARY VOLUMETRIC BUDGET FOR GSFLOW 
 DATE: 03 10 1981              CUMULATIVE TIME STEP:     161
 MODFLOW STRESS PERIOD      2     CURRENT TIME STEP:     161     ITERATIONS:      11

 -----------------------------------------------------------------------------------

   CUMULATIVE VOLUMES               L**3   RATES FOR THIS TIME STEP           L**3/T
   ------------------                      ------------------------

                                     IN                                         IN
                                     --                                         --
        PRECIPITATION =        1.3493D+07          PRECIPITATION =                  
           STREAMFLOW =                               STREAMFLOW =                  
     GW BOUNDARY FLOW =                         GW BOUNDARY FLOW =                  


                                    OUT                                        OUT
                                    ---                                        ---
   EVAPOTRANSPIRATION =        4415543.37     EVAPOTRANSPIRATION =          72811.00
           STREAMFLOW =        3637453.31             STREAMFLOW =          43703.40
     GW BOUNDARY FLOW =         104737.89       GW BOUNDARY FLOW =            652.94

   INFLOWS - OUTFLOWS =        5335206.59     INFLOWS - OUTFLOWS =        -117167.34
             --------                                   --------

 TOTAL STORAGE CHANGE =        5342828.13         STORAGE CHANGE =        -117179.92
       --------------                             --------------
         LAND SURFACE =        4391652.97           LAND SURFACE =        -169089.79
            SOIL ZONE =        2603638.55              SOIL ZONE =          28982.26
     UNSATURATED ZONE =       -1008014.99       UNSATURATED ZONE =          23160.29
       SATURATED ZONE =        -644448.40         SATURATED ZONE =           -232.69

 OVERALL BUDGET ERROR =          -7621.54           BUDGET ERROR =             12.58


  PERCENT DISCREPANCY =             -0.06    PERCENT DISCREPANCY =              0.01



1
 SUMMARY VOLUMETRIC BUDGET FOR GSFLOW 
 DATE: 03 17 1981              CUMULATIVE TIME STEP:     168
 MODFLOW STRESS PERIOD      2     CURRENT TIME STEP:     168     ITERATIONS:       9

 -----------------------------------------------------------------------------------

   CUMULATIVE VOLUMES               L**3   RATES FOR THIS TIME STEP           L**3/T
   ------------------                      ------------------------

                                     IN                                         IN
                                     --                                         --
        PRECIPITATION =        1.3744D+07          PRECIPITATION =                  
           STREAMFLOW =                               STREAMFLOW =                  
     GW BOUNDARY FLOW =                         GW BOUNDARY FLOW =                  


                                    OUT                                        OUT
                                    ---                                        ---
   EVAPOTRANSPIRATION =        4783953.12     EVAPOTRANSPIRATION =          40234.36
           STREAMFLOW =        3864789.96             STREAMFLOW =          24167.59
     GW BOUNDARY FLOW =         109305.21       GW BOUNDARY FLOW =            651.88

   INFLOWS - OUTFLOWS =        4986442.59     INFLOWS - OUTFLOWS =         -65053.84
             --------                                   --------

 TOTAL STORAGE CHANGE =        4993979.28         STORAGE CHANGE =         -65057.42
       --------------                             --------------
         LAND SURFACE =        4202420.68           LAND SURFACE =         -39897.13
            SOIL ZONE =        2438297.72              SOIL ZONE =          -5409.99
     UNSATURATED ZONE =        -987182.61       UNSATURATED ZONE =         -15785.68
       SATURATED ZONE =        -659556.50         SATURATED ZONE =          -3964.62

 OVERALL BUDGET ERROR =          -7536.69           BUDGET ERROR =              3.58


  PERCENT DISCREPANCY =             -0.05    PERCENT DISCREPANCY =              0.01



1
 SUMMARY VOLUMETRIC BUDGET FOR GSFLOW 
 DATE: 03 24 1981              CUMULATIVE TIME STEP:     175
 MODFLOW STRESS PERIOD      2     CURRENT TIME STEP:     175     ITERATIONS:       9

 -----------------------------------------------------------------------------------

   CUMULATIVE VOLUMES               L**3   RATES FOR THIS TIME STEP           L**3/T
   ------------------                      ------------------------

                                     IN                                         IN
                                     --                                         --
        PRECIPITATION =        1.4367D+07          PRECIPITATION =                  
           STREAMFLOW =                               STREAMFLOW =                  
     GW BOUNDARY FLOW =                         GW BOUNDARY FLOW =                  


                                    OUT                                        OUT
                                    ---                                        ---
   EVAPOTRANSPIRATION =        5139730.46     EVAPOTRANSPIRATION =          87428.11
           STREAMFLOW =        4040798.55             STREAMFLOW =          26842.25
     GW BOUNDARY FLOW =         113865.69       GW BOUNDARY FLOW =            651.46

   INFLOWS - OUTFLOWS =        5072350.82     INFLOWS - OUTFLOWS =        -114921.81
             --------                                   --------

 TOTAL STORAGE CHANGE =        5079910.41         STORAGE CHANGE =        -114923.70
       --------------                             --------------
         LAND SURFACE =        4477696.13           LAND SURFACE =         -65035.10
            SOIL ZONE =        2351079.84              SOIL ZONE =         -41078.55
     UNSATURATED ZONE =       -1057843.48       UNSATURATED ZONE =          -4273.75
       SATURATED ZONE =        -691022.07         SATURATED ZONE =          -4536.30

 OVERALL BUDGET ERROR =          -7559.59           BUDGET ERROR =              1.89


  PERCENT DISCREPANCY =             -0.05    PERCENT DISCREPANCY =              0.00



1
 SUMMARY VOLUMETRIC BUDGET FOR GSFLOW 
 DATE: 03 31 1981              CUMULATIVE TIME STEP:     182
 MODFLOW STRESS PERIOD      2     CURRENT TIME STEP:     182     ITERATIONS:      12

 -----------------------------------------------------------------------------------

   CUMULATIVE VOLUMES               L**3   RATES FOR THIS TIME STEP           L**3/T
   ------------------                      ------------------------

                                     IN                                         IN
                                     --                                         --
        PRECIPITATION =        1.5777D+07          PRECIPITATION =                  
           STREAMFLOW =                               STREAMFLOW =                  
     GW BOUNDARY FLOW =                         GW BOUNDARY FLOW =                  


                                    OUT                                        OUT
                                    ---                                        ---
   EVAPOTRANSPIRATION =        5569667.85     EVAPOTRANSPIRATION =          54090.27
           STREAMFLOW =        4550099.63             STREAMFLOW =          37150.26
     GW BOUNDARY FLOW =         118447.75       GW BOUNDARY FLOW =            653.61

   INFLOWS - OUTFLOWS =        5538532.75     INFLOWS - OUTFLOWS =         -91894.13
             --------                                   --------

 TOTAL STORAGE CHANGE =        5546034.76         STORAGE CHANGE =         -91917.33
       --------------                             --------------
         LAND SURFACE =        4494242.73           LAND SURFACE =         -55488.75
            SOIL ZONE =        2547520.70              SOIL ZONE =         -41753.80
     UNSATURATED ZONE =        -813362.50       UNSATURATED ZONE =           5958.44
       SATURATED ZONE =        -682366.16         SATURATED ZONE =           -633.22

 OVERALL BUDGET ERROR =          -7502.01           BUDGET ERROR =             23.20


  PERCENT DISCREPANCY =             -0.05    PERCENT DISCREPANCY =              0.03



1
 SUMMARY VOLUMETRIC BUDGET FOR GSFLOW 
 DATE: 04 07 1981              CUMULATIVE TIME STEP:     189
 MODFLOW STRESS PERIOD      2     CURRENT TIME STEP:     189     ITERATIONS:      10

 -----------------------------------------------------------------------------------

   CUMULATIVE VOLUMES               L**3   RATES FOR THIS TIME STEP           L**3/T
   ------------------                      ------------------------

                                     IN                                         IN
                                     --                                         --
        PRECIPITATION =        1.6121D+07          PRECIPITATION =                  
           STREAMFLOW =                               STREAMFLOW =                  
     GW BOUNDARY FLOW =                         GW BOUNDARY FLOW =                  


                                    OUT                                        OUT
                                    ---                                        ---
   EVAPOTRANSPIRATION =        6195734.09     EVAPOTRANSPIRATION =         103845.38
           STREAMFLOW =        4868712.19             STREAMFLOW =          43444.32
     GW BOUNDARY FLOW =         123023.09       GW BOUNDARY FLOW =            653.74

   INFLOWS - OUTFLOWS =        4933998.23     INFLOWS - OUTFLOWS =        -147943.44
             --------                                   --------

 TOTAL STORAGE CHANGE =        4941398.53         STORAGE CHANGE =        -147961.48
       --------------                             --------------
         LAND SURFACE =        3870170.37           LAND SURFACE =        -138668.80
            SOIL ZONE =        2478815.35              SOIL ZONE =         -20354.09
     UNSATURATED ZONE =        -729488.72       UNSATURATED ZONE =          10707.37
       SATURATED ZONE =        -678098.47         SATURATED ZONE =            354.03

 OVERALL BUDGET ERROR =          -7400.30           BUDGET ERROR =             18.04


  PERCENT DISCREPANCY =             -0.05    PERCENT DISCREPANCY =              0.01



1
 SUMMARY VOLUMETRIC BUDGET FOR GSFLOW 
 DATE: 04 14 1981              CUMULATIVE TIME STEP:     196
 MODFLOW STRESS PERIOD      2     CURRENT TIME STEP:     196     ITERATIONS:      13

 -----------------------------------------------------------------------------------

   CUMULATIVE VOLUMES               L**3   RATES FOR THIS TIME STEP           L**3/T
   ------------------                      ------------------------

                                     IN                                         IN
                                     --                                         --
        PRECIPITATION =        1.6121D+07          PRECIPITATION =                  
           STREAMFLOW =                               STREAMFLOW =                  
     GW BOUNDARY FLOW =                         GW BOUNDARY FLOW =                  


                                    OUT                                        OUT
                                    ---                                        ---
   EVAPOTRANSPIRATION =        7106423.61     EVAPOTRANSPIRATION =         191911.71
           STREAMFLOW =        5196242.33             STREAMFLOW =          55525.57
     GW BOUNDARY FLOW =         127598.53       GW BOUNDARY FLOW =            653.68

   INFLOWS - OUTFLOWS =        3691203.14     INFLOWS - OUTFLOWS =        -248090.97
             --------                                   --------

 TOTAL STORAGE CHANGE =        3698472.32         STORAGE CHANGE =        -248103.06
       --------------                             --------------
         LAND SURFACE =        2621455.97           LAND SURFACE =        -253007.68
            SOIL ZONE =        2387274.21              SOIL ZONE =         -16804.75
     UNSATURATED ZONE =        -639157.16       UNSATURATED ZONE =          19488.92
       SATURATED ZONE =        -671100.70         SATURATED ZONE =           2220.45

 OVERALL BUDGET ERROR =          -7269.18           BUDGET ERROR =             12.09


  PERCENT DISCREPANCY =             -0.05    PERCENT DISCREPANCY =              0.00



1
 SUMMARY VOLUMETRIC BUDGET FOR GSFLOW 
 DATE: 04 21 1981              CUMULATIVE TIME STEP:     203
 MODFLOW STRESS PERIOD      2     CURRENT TIME STEP:     203     ITERATIONS:      12

 -----------------------------------------------------------------------------------

   CUMULATIVE VOLUMES               L**3   RATES FOR THIS TIME STEP           L**3/T
   ------------------                      ------------------------

                                     IN                                         IN
                                     --                                         --
        PRECIPITATION =        1.6310D+07          PRECIPITATION =                  
           STREAMFLOW =                               STREAMFLOW =                  
     GW BOUNDARY FLOW =                         GW BOUNDARY FLOW =                  


                                    OUT                                        OUT
                                    ---                                        ---
   EVAPOTRANSPIRATION =        8178387.44     EVAPOTRANSPIRATION =         152247.85
           STREAMFLOW =        5535777.65             STREAMFLOW =          45835.14
     GW BOUNDARY FLOW =         132169.99       GW BOUNDARY FLOW =            652.64

   INFLOWS - OUTFLOWS =        2463907.56     INFLOWS - OUTFLOWS =        -198735.63
             --------                                   --------

 TOTAL STORAGE CHANGE =        2471046.65         STORAGE CHANGE =        -198764.29
       --------------                             --------------
         LAND SURFACE =        1440926.25           LAND SURFACE =        -121359.42
            SOIL ZONE =        2205498.07              SOIL ZONE =         -97184.17
     UNSATURATED ZONE =        -521974.09       UNSATURATED ZONE =          16839.54
       SATURATED ZONE =        -653403.58         SATURATED ZONE =           2939.76

 OVERALL BUDGET ERROR =          -7139.10           BUDGET ERROR =             28.66


  PERCENT DISCREPANCY =             -0.04    PERCENT DISCREPANCY =              0.01



1
 SUMMARY VOLUMETRIC BUDGET FOR GSFLOW 
 DATE: 04 28 1981              CUMULATIVE TIME STEP:     210
 MODFLOW STRESS PERIOD      2     CURRENT TIME STEP:     210     ITERATIONS:      14

 -----------------------------------------------------------------------------------

   CUMULATIVE VOLUMES               L**3   RATES FOR THIS TIME STEP           L**3/T
   ------------------                      ------------------------

                                     IN                                         IN
                                     --                                         --
        PRECIPITATION =        1.6515D+07          PRECIPITATION =                  
           STREAMFLOW =                               STREAMFLOW =                  
     GW BOUNDARY FLOW =                         GW BOUNDARY FLOW =                  


                                    OUT                                        OUT
                                    ---                                        ---
   EVAPOTRANSPIRATION =        9416883.78     EVAPOTRANSPIRATION =         200405.69
           STREAMFLOW =        5748133.90             STREAMFLOW =          24699.26
     GW BOUNDARY FLOW =         136729.49       GW BOUNDARY FLOW =            650.47

   INFLOWS - OUTFLOWS =        1213685.72     INFLOWS - OUTFLOWS =        -225755.42
             --------                                   --------

 TOTAL STORAGE CHANGE =        1220715.87         STORAGE CHANGE =        -225768.38
       --------------                             --------------
         LAND SURFACE =         691530.96           LAND SURFACE =         -83509.90
            SOIL ZONE =        1695320.44              SOIL ZONE =        -138438.09
     UNSATURATED ZONE =        -520665.54       UNSATURATED ZONE =          -4116.14
       SATURATED ZONE =        -645469.99         SATURATED ZONE =            295.75

 OVERALL BUDGET ERROR =          -7030.15           BUDGET ERROR =             12.96


  PERCENT DISCREPANCY =             -0.04    PERCENT DISCREPANCY =              0.01



1
 SUMMARY VOLUMETRIC BUDGET FOR GSFLOW 
 DATE: 05 05 1981              CUMULATIVE TIME STEP:     217
 MODFLOW STRESS PERIOD      2     CURRENT TIME STEP:     217     ITERATIONS:      13

 -----------------------------------------------------------------------------------

   CUMULATIVE VOLUMES               L**3   RATES FOR THIS TIME STEP           L**3/T
   ------------------                      ------------------------

                                     IN                                         IN
                                     --                                         --
        PRECIPITATION =        1.6515D+07          PRECIPITATION =                  
           STREAMFLOW =                               STREAMFLOW =                  
     GW BOUNDARY FLOW =                         GW BOUNDARY FLOW =                  


                                    OUT                                        OUT
                                    ---                                        ---
   EVAPOTRANSPIRATION =        1.0268D+07     EVAPOTRANSPIRATION =          47821.05
           STREAMFLOW =        5854168.17             STREAMFLOW =          10871.48
     GW BOUNDARY FLOW =         141275.92       GW BOUNDARY FLOW =            648.80

   INFLOWS - OUTFLOWS =         252296.76     INFLOWS - OUTFLOWS =         -59341.33
             --------                                   --------

 TOTAL STORAGE CHANGE =         259262.33         STORAGE CHANGE =         -59344.46
       --------------                             --------------
         LAND SURFACE =         347350.76           LAND SURFACE =         -17502.06
            SOIL ZONE =        1187480.59              SOIL ZONE =         -23028.57
     UNSATURATED ZONE =        -617141.04       UNSATURATED ZONE =         -15761.15
       SATURATED ZONE =        -658427.98         SATURATED ZONE =          -3052.69

 OVERALL BUDGET ERROR =          -6965.57           BUDGET ERROR =              3.12


  PERCENT DISCREPANCY =             -0.04    PERCENT DISCREPANCY =              0.01



1
 SUMMARY VOLUMETRIC BUDGET FOR GSFLOW 
 DATE: 05 12 1981              CUMULATIVE TIME STEP:     224
 MODFLOW STRESS PERIOD      2     CURRENT TIME STEP:     224     ITERATIONS:      18

 -----------------------------------------------------------------------------------

   CUMULATIVE VOLUMES               L**3   RATES FOR THIS TIME STEP           L**3/T
   ------------------                      ------------------------

                                     IN                                         IN
                                     --                                         --
        PRECIPITATION =        1.6515D+07          PRECIPITATION =                  
           STREAMFLOW =                               STREAMFLOW =                  
     GW BOUNDARY FLOW =                         GW BOUNDARY FLOW =                  


                                    OUT                                        OUT
                                    ---                                        ---
   EVAPOTRANSPIRATION =        1.0759D+07     EVAPOTRANSPIRATION =          90819.25
           STREAMFLOW =        5925312.28             STREAMFLOW =          10488.57
     GW BOUNDARY FLOW =         145814.60       GW BOUNDARY FLOW =            648.22

   INFLOWS - OUTFLOWS =        -314556.50     INFLOWS - OUTFLOWS =        -101956.04
             --------                                   --------

 TOTAL STORAGE CHANGE =        -307596.22         STORAGE CHANGE =        -101950.35
       --------------                             --------------
         LAND SURFACE =         198678.97           LAND SURFACE =         -25500.84
            SOIL ZONE =         903948.19              SOIL ZONE =         -57629.54
     UNSATURATED ZONE =        -722164.07       UNSATURATED ZONE =         -13422.82
       SATURATED ZONE =        -688059.31         SATURATED ZONE =          -5397.15

 OVERALL BUDGET ERROR =          -6960.27           BUDGET ERROR =             -5.69


  PERCENT DISCREPANCY =             -0.04    PERCENT DISCREPANCY =             -0.01



1
 SUMMARY VOLUMETRIC BUDGET FOR GSFLOW 
 DATE: 05 19 1981              CUMULATIVE TIME STEP:     231
 MODFLOW STRESS PERIOD      2     CURRENT TIME STEP:     231     ITERATIONS:      17

 -----------------------------------------------------------------------------------

   CUMULATIVE VOLUMES               L**3   RATES FOR THIS TIME STEP           L**3/T
   ------------------                      ------------------------

                                     IN                                         IN
                                     --                                         --
        PRECIPITATION =        1.7837D+07          PRECIPITATION =         169045.43
           STREAMFLOW =                               STREAMFLOW =                  
     GW BOUNDARY FLOW =                         GW BOUNDARY FLOW =                  


                                    OUT                                        OUT
                                    ---                                        ---
   EVAPOTRANSPIRATION =        1.1102D+07     EVAPOTRANSPIRATION =          32129.65
           STREAMFLOW =        6056454.79             STREAMFLOW =          27356.13
     GW BOUNDARY FLOW =         150354.13       GW BOUNDARY FLOW =            649.57

   INFLOWS - OUTFLOWS =         528007.79     INFLOWS - OUTFLOWS =         108910.08
             --------                                   --------

 TOTAL STORAGE CHANGE =         534976.07         STORAGE CHANGE =         108916.80
       --------------                             --------------
         LAND SURFACE =         167097.84           LAND SURFACE =           4534.24
            SOIL ZONE =        1884673.06              SOIL ZONE =         110155.18
     UNSATURATED ZONE =        -789788.26       UNSATURATED ZONE =           -535.06
       SATURATED ZONE =        -727006.58         SATURATED ZONE =          -5237.56

 OVERALL BUDGET ERROR =          -6968.28           BUDGET ERROR =             -6.73


  PERCENT DISCREPANCY =             -0.04    PERCENT DISCREPANCY =             -0.00



1
 SUMMARY VOLUMETRIC BUDGET FOR GSFLOW 
 DATE: 05 26 1981              CUMULATIVE TIME STEP:     238
 MODFLOW STRESS PERIOD      2     CURRENT TIME STEP:     238     ITERATIONS:      14

 -----------------------------------------------------------------------------------

   CUMULATIVE VOLUMES               L**3   RATES FOR THIS TIME STEP           L**3/T
   ------------------                      ------------------------

                                     IN                                         IN
                                     --                                         --
        PRECIPITATION =        1.8252D+07          PRECIPITATION =         284303.67
           STREAMFLOW =                               STREAMFLOW =                  
     GW BOUNDARY FLOW =                         GW BOUNDARY FLOW =                  


                                    OUT                                        OUT
                                    ---                                        ---
   EVAPOTRANSPIRATION =        1.1924D+07     EVAPOTRANSPIRATION =         132233.27
           STREAMFLOW =        6170015.72             STREAMFLOW =          19495.86
     GW BOUNDARY FLOW =         154895.60       GW BOUNDARY FLOW =            648.54

   INFLOWS - OUTFLOWS =           3269.85     INFLOWS - OUTFLOWS =         131926.00
             --------                                   --------

 TOTAL STORAGE CHANGE =          10248.74         STORAGE CHANGE =         131934.91
       --------------                             --------------
         LAND SURFACE =          96880.50           LAND SURFACE =          -7049.94
            SOIL ZONE =        1534295.12              SOIL ZONE =         156321.88
     UNSATURATED ZONE =        -846854.91       UNSATURATED ZONE =         -10696.97
       SATURATED ZONE =        -774071.96         SATURATED ZONE =          -6640.06

 OVERALL BUDGET ERROR =          -6978.89           BUDGET ERROR =             -8.92


  PERCENT DISCREPANCY =             -0.04    PERCENT DISCREPANCY =             -0.00



1
 SUMMARY VOLUMETRIC BUDGET FOR GSFLOW 
 DATE: 06 02 1981              CUMULATIVE TIME STEP:     245
 MODFLOW STRESS PERIOD      2     CURRENT TIME STEP:     245     ITERATIONS:      14

 -----------------------------------------------------------------------------------

   CUMULATIVE VOLUMES               L**3   RATES FOR THIS TIME STEP           L**3/T
   ------------------                      ------------------------

                                     IN                                         IN
                                     --                                         --
        PRECIPITATION =        1.8318D+07          PRECIPITATION =          50869.96
           STREAMFLOW =                               STREAMFLOW =                  
     GW BOUNDARY FLOW =                         GW BOUNDARY FLOW =                  


                                    OUT                                        OUT
                                    ---                                        ---
   EVAPOTRANSPIRATION =        1.2720D+07     EVAPOTRANSPIRATION =          69334.98
           STREAMFLOW =        6240835.86             STREAMFLOW =           7792.42
     GW BOUNDARY FLOW =         159430.94       GW BOUNDARY FLOW =            647.45

   INFLOWS - OUTFLOWS =        -802478.87     INFLOWS - OUTFLOWS =         -26904.89
             --------                                   --------

 TOTAL STORAGE CHANGE =        -795477.84         STORAGE CHANGE =         -26894.83
       --------------                             --------------
         LAND SURFACE =          61812.20           LAND SURFACE =          30830.75
            SOIL ZONE =         908197.52              SOIL ZONE =         -35679.28
     UNSATURATED ZONE =        -934814.72       UNSATURATED ZONE =         -13671.93
       SATURATED ZONE =        -830672.84         SATURATED ZONE =          -8374.38

 OVERALL BUDGET ERROR =          -7001.03           BUDGET ERROR =            -10.05


  PERCENT DISCREPANCY =             -0.04    PERCENT DISCREPANCY =             -0.01



1
 SUMMARY VOLUMETRIC BUDGET FOR GSFLOW 
 DATE: 06 09 1981              CUMULATIVE TIME STEP:     252
 MODFLOW STRESS PERIOD      2     CURRENT TIME STEP:     252     ITERATIONS:      13

 -----------------------------------------------------------------------------------

   CUMULATIVE VOLUMES               L**3   RATES FOR THIS TIME STEP           L**3/T
   ------------------                      ------------------------

                                     IN                                         IN
                                     --                                         --
        PRECIPITATION =        1.8318D+07          PRECIPITATION =                  
           STREAMFLOW =                               STREAMFLOW =                  
     GW BOUNDARY FLOW =                         GW BOUNDARY FLOW =                  


                                    OUT                                        OUT
                                    ---                                        ---
   EVAPOTRANSPIRATION =        1.3216D+07     EVAPOTRANSPIRATION =          51758.84
           STREAMFLOW =        6288715.76             STREAMFLOW =           6433.64
     GW BOUNDARY FLOW =         163960.88       GW BOUNDARY FLOW =            646.96

   INFLOWS - OUTFLOWS =       -1350475.78     INFLOWS - OUTFLOWS =         -58839.44
             --------                                   --------

 TOTAL STORAGE CHANGE =       -1343444.55         STORAGE CHANGE =         -58832.29
       --------------                             --------------
         LAND SURFACE =           8252.08           LAND SURFACE =          -1595.17
            SOIL ZONE =         569181.34              SOIL ZONE =         -35005.34
     UNSATURATED ZONE =       -1028938.35       UNSATURATED ZONE =         -13320.35
       SATURATED ZONE =        -891939.62         SATURATED ZONE =          -8911.43

 OVERALL BUDGET ERROR =          -7031.24           BUDGET ERROR =             -7.16


  PERCENT DISCREPANCY =             -0.04    PERCENT DISCREPANCY =             -0.01



1
 SUMMARY VOLUMETRIC BUDGET FOR GSFLOW 
 DATE: 06 16 1981              CUMULATIVE TIME STEP:     259
 MODFLOW STRESS PERIOD      2     CURRENT TIME STEP:     259     ITERATIONS:      17

 -----------------------------------------------------------------------------------

   CUMULATIVE VOLUMES               L**3   RATES FOR THIS TIME STEP           L**3/T
   ------------------                      ------------------------

                                     IN                                         IN
                                     --                                         --
        PRECIPITATION =        1.8318D+07          PRECIPITATION =                  
           STREAMFLOW =                               STREAMFLOW =                  
     GW BOUNDARY FLOW =                         GW BOUNDARY FLOW =                  


                                    OUT                                        OUT
                                    ---                                        ---
   EVAPOTRANSPIRATION =        1.3408D+07     EVAPOTRANSPIRATION =          45426.28
           STREAMFLOW =        6332450.64             STREAMFLOW =           6177.36
     GW BOUNDARY FLOW =         168488.70       GW BOUNDARY FLOW =            646.75

   INFLOWS - OUTFLOWS =       -1591080.63     INFLOWS - OUTFLOWS =         -52250.38
             --------                                   --------

 TOTAL STORAGE CHANGE =       -1584020.93         STORAGE CHANGE =         -52242.22
       --------------                             --------------
         LAND SURFACE =           3425.60           LAND SURFACE =           -943.52
            SOIL ZONE =         487787.62              SOIL ZONE =         -29390.10
     UNSATURATED ZONE =       -1120035.34       UNSATURATED ZONE =         -12776.76
       SATURATED ZONE =        -955198.81         SATURATED ZONE =          -9131.84

 OVERALL BUDGET ERROR =          -7059.70           BUDGET ERROR =             -8.16


  PERCENT DISCREPANCY =             -0.04    PERCENT DISCREPANCY =             -0.02



1
 SUMMARY VOLUMETRIC BUDGET FOR GSFLOW 
 DATE: 06 23 1981              CUMULATIVE TIME STEP:     266
 MODFLOW STRESS PERIOD      2     CURRENT TIME STEP:     266     ITERATIONS:      14

 -----------------------------------------------------------------------------------

   CUMULATIVE VOLUMES               L**3   RATES FOR THIS TIME STEP           L**3/T
   ------------------                      ------------------------

                                     IN                                         IN
                                     --                                         --
        PRECIPITATION =        1.8318D+07          PRECIPITATION =                  
           STREAMFLOW =                               STREAMFLOW =                  
     GW BOUNDARY FLOW =                         GW BOUNDARY FLOW =                  


                                    OUT                                        OUT
                                    ---                                        ---
   EVAPOTRANSPIRATION =        1.3708D+07     EVAPOTRANSPIRATION =          34948.08
           STREAMFLOW =        6374639.97             STREAMFLOW =           5948.40
     GW BOUNDARY FLOW =         173015.22       GW BOUNDARY FLOW =            646.57

   INFLOWS - OUTFLOWS =       -1937085.56     INFLOWS - OUTFLOWS =         -41543.05
             --------                                   --------

 TOTAL STORAGE CHANGE =       -1930013.50         STORAGE CHANGE =         -41537.38
       --------------                             --------------
         LAND SURFACE =                             LAND SURFACE =                  
            SOIL ZONE =         297455.80              SOIL ZONE =         -19913.32
     UNSATURATED ZONE =       -1205969.39       UNSATURATED ZONE =         -11812.10
       SATURATED ZONE =       -1021499.91         SATURATED ZONE =          -9811.96

 OVERALL BUDGET ERROR =          -7072.06           BUDGET ERROR =             -5.67


  PERCENT DISCREPANCY =             -0.03    PERCENT DISCREPANCY =             -0.01



1
 SUMMARY VOLUMETRIC BUDGET FOR GSFLOW 
 DATE: 06 30 1981              CUMULATIVE TIME STEP:     273
 MODFLOW STRESS PERIOD      2     CURRENT TIME STEP:     273     ITERATIONS:       9

 -----------------------------------------------------------------------------------

   CUMULATIVE VOLUMES               L**3   RATES FOR THIS TIME STEP           L**3/T
   ------------------                      ------------------------

                                     IN                                         IN
[...]
   ------------------                      ------------------------

                                     IN                                         IN
                                     --                                         --
        PRECIPITATION =        4.6511D+08          PRECIPITATION =                  
           STREAMFLOW =                               STREAMFLOW =                  
     GW BOUNDARY FLOW =                         GW BOUNDARY FLOW =                  


                                    OUT                                        OUT
                                    ---                                        ---
   EVAPOTRANSPIRATION =        2.8377D+08     EVAPOTRANSPIRATION =          30207.07
           STREAMFLOW =        1.8523D+08             STREAMFLOW =           6869.41
     GW BOUNDARY FLOW =        3740936.58       GW BOUNDARY FLOW =            650.46

   INFLOWS - OUTFLOWS =       -7636200.18     INFLOWS - OUTFLOWS =         -37726.94
             --------                                   --------

 TOTAL STORAGE CHANGE =       -7535213.36         STORAGE CHANGE =         -37752.44
       --------------                             --------------
         LAND SURFACE =          55405.90           LAND SURFACE =          -3487.93
            SOIL ZONE =         184092.22              SOIL ZONE =         -12900.63
     UNSATURATED ZONE =        4914439.36       UNSATURATED ZONE =         -26909.24
       SATURATED ZONE =       -1.2689D+07         SATURATED ZONE =           5545.36

 OVERALL BUDGET ERROR =        -100986.82           BUDGET ERROR =             25.51


  PERCENT DISCREPANCY =             -0.02    PERCENT DISCREPANCY =              0.07



1
 SUMMARY VOLUMETRIC BUDGET FOR GSFLOW 
 DATE: 08 06 1996              CUMULATIVE TIME STEP:    5789
 MODFLOW STRESS PERIOD      2     CURRENT TIME STEP:    5789     ITERATIONS:      15

 -----------------------------------------------------------------------------------

   CUMULATIVE VOLUMES               L**3   RATES FOR THIS TIME STEP           L**3/T
   ------------------                      ------------------------

                                     IN                                         IN
                                     --                                         --
        PRECIPITATION =        4.6511D+08          PRECIPITATION =                  
           STREAMFLOW =                               STREAMFLOW =                  
     GW BOUNDARY FLOW =                         GW BOUNDARY FLOW =                  


                                    OUT                                        OUT
                                    ---                                        ---
   EVAPOTRANSPIRATION =        2.8392D+08     EVAPOTRANSPIRATION =          19826.52
           STREAMFLOW =        1.8528D+08             STREAMFLOW =           6660.92
     GW BOUNDARY FLOW =        3745489.59       GW BOUNDARY FLOW =            650.38

   INFLOWS - OUTFLOWS =       -7833023.95     INFLOWS - OUTFLOWS =         -27137.82
             --------                                   --------

 TOTAL STORAGE CHANGE =       -7732152.70         STORAGE CHANGE =         -27143.40
       --------------                             --------------
         LAND SURFACE =          37062.04           LAND SURFACE =          -2253.66
            SOIL ZONE =         153735.03              SOIL ZONE =          -3855.39
     UNSATURATED ZONE =        4729347.56       UNSATURATED ZONE =         -25987.75
       SATURATED ZONE =       -1.2652D+07         SATURATED ZONE =           4953.40

 OVERALL BUDGET ERROR =        -100871.25           BUDGET ERROR =              5.57


  PERCENT DISCREPANCY =             -0.02    PERCENT DISCREPANCY =              0.02



1
 SUMMARY VOLUMETRIC BUDGET FOR GSFLOW 
 DATE: 08 13 1996              CUMULATIVE TIME STEP:    5796
 MODFLOW STRESS PERIOD      2     CURRENT TIME STEP:    5796     ITERATIONS:      14

 -----------------------------------------------------------------------------------

   CUMULATIVE VOLUMES               L**3   RATES FOR THIS TIME STEP           L**3/T
   ------------------                      ------------------------

                                     IN                                         IN
                                     --                                         --
        PRECIPITATION =        4.6531D+08          PRECIPITATION =          54454.08
           STREAMFLOW =                               STREAMFLOW =                  
     GW BOUNDARY FLOW =                         GW BOUNDARY FLOW =                  


                                    OUT                                        OUT
                                    ---                                        ---
   EVAPOTRANSPIRATION =        2.8409D+08     EVAPOTRANSPIRATION =          29381.20
           STREAMFLOW =        1.8533D+08             STREAMFLOW =           7873.75
     GW BOUNDARY FLOW =        3750041.80       GW BOUNDARY FLOW =            650.33

   INFLOWS - OUTFLOWS =       -7860277.87     INFLOWS - OUTFLOWS =          16548.81
             --------                                   --------

 TOTAL STORAGE CHANGE =       -7759497.70         STORAGE CHANGE =          16533.80
       --------------                             --------------
         LAND SURFACE =          53162.52           LAND SURFACE =          -2312.39
            SOIL ZONE =         256096.15              SOIL ZONE =          39491.50
     UNSATURATED ZONE =        4553933.98       UNSATURATED ZONE =         -24440.64
       SATURATED ZONE =       -1.2623D+07         SATURATED ZONE =           3795.34

 OVERALL BUDGET ERROR =        -100780.17           BUDGET ERROR =             15.00


  PERCENT DISCREPANCY =             -0.02    PERCENT DISCREPANCY =              0.03



1
 SUMMARY VOLUMETRIC BUDGET FOR GSFLOW 
 DATE: 08 20 1996              CUMULATIVE TIME STEP:    5803
 MODFLOW STRESS PERIOD      2     CURRENT TIME STEP:    5803     ITERATIONS:      14

 -----------------------------------------------------------------------------------

   CUMULATIVE VOLUMES               L**3   RATES FOR THIS TIME STEP           L**3/T
   ------------------                      ------------------------

                                     IN                                         IN
                                     --                                         --
        PRECIPITATION =        4.6531D+08          PRECIPITATION =                  
           STREAMFLOW =                               STREAMFLOW =                  
     GW BOUNDARY FLOW =                         GW BOUNDARY FLOW =                  


                                    OUT                                        OUT
                                    ---                                        ---
   EVAPOTRANSPIRATION =        2.8429D+08     EVAPOTRANSPIRATION =          19354.54
           STREAMFLOW =        1.8538D+08             STREAMFLOW =           6462.83
     GW BOUNDARY FLOW =        3754592.48       GW BOUNDARY FLOW =            649.92

   INFLOWS - OUTFLOWS =       -8111016.33     INFLOWS - OUTFLOWS =         -26467.30
             --------                                   --------

 TOTAL STORAGE CHANGE =       -8010318.34         STORAGE CHANGE =         -26473.42
       --------------                             --------------
         LAND SURFACE =           6921.38           LAND SURFACE =          -1297.31
            SOIL ZONE =         195809.44              SOIL ZONE =          -4677.67
     UNSATURATED ZONE =        4386888.00       UNSATURATED ZONE =         -23349.23
       SATURATED ZONE =       -1.2600D+07         SATURATED ZONE =           2850.79

 OVERALL BUDGET ERROR =        -100697.98           BUDGET ERROR =              6.13


  PERCENT DISCREPANCY =             -0.02    PERCENT DISCREPANCY =              0.02



1
 SUMMARY VOLUMETRIC BUDGET FOR GSFLOW 
 DATE: 08 27 1996              CUMULATIVE TIME STEP:    5810
 MODFLOW STRESS PERIOD      2     CURRENT TIME STEP:    5810     ITERATIONS:      12

 -----------------------------------------------------------------------------------

   CUMULATIVE VOLUMES               L**3   RATES FOR THIS TIME STEP           L**3/T
   ------------------                      ------------------------

                                     IN                                         IN
                                     --                                         --
        PRECIPITATION =        4.6531D+08          PRECIPITATION =                  
           STREAMFLOW =                               STREAMFLOW =                  
     GW BOUNDARY FLOW =                         GW BOUNDARY FLOW =                  


                                    OUT                                        OUT
                                    ---                                        ---
   EVAPOTRANSPIRATION =        2.8443D+08     EVAPOTRANSPIRATION =          15485.58
           STREAMFLOW =        1.8542D+08             STREAMFLOW =           6300.93
     GW BOUNDARY FLOW =        3759140.43       GW BOUNDARY FLOW =            649.54

   INFLOWS - OUTFLOWS =       -8300315.80     INFLOWS - OUTFLOWS =         -22436.06
             --------                                   --------

 TOTAL STORAGE CHANGE =       -8199761.71         STORAGE CHANGE =         -22465.83
       --------------                             --------------
         LAND SURFACE =           1243.96           LAND SURFACE =           -271.65
            SOIL ZONE =         154623.64              SOIL ZONE =          -1921.84
     UNSATURATED ZONE =        4227860.74       UNSATURATED ZONE =         -22195.67
       SATURATED ZONE =       -1.2583D+07         SATURATED ZONE =           1923.34

 OVERALL BUDGET ERROR =        -100554.10           BUDGET ERROR =             29.77


  PERCENT DISCREPANCY =             -0.02    PERCENT DISCREPANCY =              0.13



1
 SUMMARY VOLUMETRIC BUDGET FOR GSFLOW 
 DATE: 09 03 1996              CUMULATIVE TIME STEP:    5817
 MODFLOW STRESS PERIOD      2     CURRENT TIME STEP:    5817     ITERATIONS:      12

 -----------------------------------------------------------------------------------

   CUMULATIVE VOLUMES               L**3   RATES FOR THIS TIME STEP           L**3/T
   ------------------                      ------------------------

                                     IN                                         IN
                                     --                                         --
        PRECIPITATION =        4.6531D+08          PRECIPITATION =                  
           STREAMFLOW =                               STREAMFLOW =                  
     GW BOUNDARY FLOW =                         GW BOUNDARY FLOW =                  


                                    OUT                                        OUT
                                    ---                                        ---
   EVAPOTRANSPIRATION =        2.8454D+08     EVAPOTRANSPIRATION =          12838.73
           STREAMFLOW =        1.8547D+08             STREAMFLOW =           6196.00
     GW BOUNDARY FLOW =        3763685.61       GW BOUNDARY FLOW =            649.14

   INFLOWS - OUTFLOWS =       -8455801.23     INFLOWS - OUTFLOWS =         -19683.87
             --------                                   --------

 TOTAL STORAGE CHANGE =       -8355430.56         STORAGE CHANGE =         -19721.66
       --------------                             --------------
         LAND SURFACE =            583.76           LAND SURFACE =            -75.05
            SOIL ZONE =         140563.63              SOIL ZONE =            401.78
     UNSATURATED ZONE =        4072950.56       UNSATURATED ZONE =         -22052.32
       SATURATED ZONE =       -1.2570D+07         SATURATED ZONE =           2003.94

 OVERALL BUDGET ERROR =        -100370.67           BUDGET ERROR =             37.79


  PERCENT DISCREPANCY =             -0.02    PERCENT DISCREPANCY =              0.19



1
 SUMMARY VOLUMETRIC BUDGET FOR GSFLOW 
 DATE: 09 10 1996              CUMULATIVE TIME STEP:    5824
 MODFLOW STRESS PERIOD      2     CURRENT TIME STEP:    5824     ITERATIONS:      12

 -----------------------------------------------------------------------------------

   CUMULATIVE VOLUMES               L**3   RATES FOR THIS TIME STEP           L**3/T
   ------------------                      ------------------------

                                     IN                                         IN
                                     --                                         --
        PRECIPITATION =        4.6531D+08          PRECIPITATION =                  
           STREAMFLOW =                               STREAMFLOW =                  
     GW BOUNDARY FLOW =                         GW BOUNDARY FLOW =                  


                                    OUT                                        OUT
                                    ---                                        ---
   EVAPOTRANSPIRATION =        2.8463D+08     EVAPOTRANSPIRATION =          13260.65
           STREAMFLOW =        1.8551D+08             STREAMFLOW =           6104.01
     GW BOUNDARY FLOW =        3768228.05       GW BOUNDARY FLOW =            648.75

   INFLOWS - OUTFLOWS =       -8588611.95     INFLOWS - OUTFLOWS =         -20013.41
             --------                                   --------

 TOTAL STORAGE CHANGE =       -8488428.12         STORAGE CHANGE =         -20037.76
       --------------                             --------------
         LAND SURFACE =            141.35           LAND SURFACE =            -69.28
            SOIL ZONE =         147399.58              SOIL ZONE =           -150.79
     UNSATURATED ZONE =        3923735.75       UNSATURATED ZONE =         -20840.83
       SATURATED ZONE =       -1.2560D+07         SATURATED ZONE =           1023.15

 OVERALL BUDGET ERROR =        -100183.83           BUDGET ERROR =             24.35


  PERCENT DISCREPANCY =             -0.02    PERCENT DISCREPANCY =              0.12



1
 SUMMARY VOLUMETRIC BUDGET FOR GSFLOW 
 DATE: 09 17 1996              CUMULATIVE TIME STEP:    5831
 MODFLOW STRESS PERIOD      2     CURRENT TIME STEP:    5831     ITERATIONS:      12

 -----------------------------------------------------------------------------------

   CUMULATIVE VOLUMES               L**3   RATES FOR THIS TIME STEP           L**3/T
   ------------------                      ------------------------

                                     IN                                         IN
                                     --                                         --
        PRECIPITATION =        4.6637D+08          PRECIPITATION =                  
           STREAMFLOW =                               STREAMFLOW =                  
     GW BOUNDARY FLOW =                         GW BOUNDARY FLOW =                  


                                    OUT                                        OUT
                                    ---                                        ---
   EVAPOTRANSPIRATION =        2.8480D+08     EVAPOTRANSPIRATION =          58054.02
           STREAMFLOW =        1.8557D+08             STREAMFLOW =          10261.63
     GW BOUNDARY FLOW =        3772769.66       GW BOUNDARY FLOW =            649.14

   INFLOWS - OUTFLOWS =       -7783288.67     INFLOWS - OUTFLOWS =         -68964.79
             --------                                   --------

 TOTAL STORAGE CHANGE =       -7683366.28         STORAGE CHANGE =         -68994.71
       --------------                             --------------
         LAND SURFACE =           3348.24           LAND SURFACE =         -35098.95
            SOIL ZONE =        1085130.77              SOIL ZONE =         -14281.67
     UNSATURATED ZONE =        3782144.96       UNSATURATED ZONE =         -19813.31
       SATURATED ZONE =       -1.2554D+07         SATURATED ZONE =            199.22

 OVERALL BUDGET ERROR =         -99922.39           BUDGET ERROR =             29.92


  PERCENT DISCREPANCY =             -0.02    PERCENT DISCREPANCY =              0.04



1
 SUMMARY VOLUMETRIC BUDGET FOR GSFLOW 
 DATE: 09 24 1996              CUMULATIVE TIME STEP:    5838
 MODFLOW STRESS PERIOD      2     CURRENT TIME STEP:    5838     ITERATIONS:      16

 -----------------------------------------------------------------------------------

   CUMULATIVE VOLUMES               L**3   RATES FOR THIS TIME STEP           L**3/T
   ------------------                      ------------------------

                                     IN                                         IN
                                     --                                         --
        PRECIPITATION =        4.6637D+08          PRECIPITATION =                  
           STREAMFLOW =                               STREAMFLOW =                  
     GW BOUNDARY FLOW =                         GW BOUNDARY FLOW =                  


                                    OUT                                        OUT
                                    ---                                        ---
   EVAPOTRANSPIRATION =        2.8526D+08     EVAPOTRANSPIRATION =          54069.64
           STREAMFLOW =        1.8563D+08             STREAMFLOW =           6704.41
     GW BOUNDARY FLOW =        3777309.66       GW BOUNDARY FLOW =            648.23

   INFLOWS - OUTFLOWS =       -8304209.84     INFLOWS - OUTFLOWS =         -61422.28
             --------                                   --------

 TOTAL STORAGE CHANGE =       -8204425.71         STORAGE CHANGE =         -61421.95
       --------------                             --------------
         LAND SURFACE =                             LAND SURFACE =                  
            SOIL ZONE =         703933.10              SOIL ZONE =         -42023.17
     UNSATURATED ZONE =        3645781.82       UNSATURATED ZONE =         -19194.20
       SATURATED ZONE =       -1.2554D+07         SATURATED ZONE =           -204.59

 OVERALL BUDGET ERROR =         -99784.12           BUDGET ERROR =             -0.33


  PERCENT DISCREPANCY =             -0.02    PERCENT DISCREPANCY =             -0.00



 Number of time steps:   5844;  Number of non-convergence:   0
 MF iterations:         64597;  SZ iterations:           64528
 Average MF iterations: 11.05;  Average SZ iterations:   11.04
 Maximum MF iterations:    34;  Maximum SZ iterations:      25

mxsziter reached: 15

MF iteration distribution:      0    0    0   37  356  443  808  531  384  421
                              466  404  356  398  319  180  110  121  130  161
                              104   71   23    5    1    3    0    2    2    3
                                1    2    1    1    0    0    0    0    0    0
                                0    0    0    0    0    0    0    0    0    0
                                0    0    0    0    0    0    0    0    0    0
                                0    0    0    0    0    0    0    0    0    0
                                0    0    0    0    0    0    0    0    0    0

SZ computation distribution:    0    0    0   37  356  443  808  531  384  421
                              466  404  356  398  319  180  110  121  130  161
                              104   71   23    5   16    0    0    0    0    0
                                0    0    0    0    0    0    0    0    0    0
                                0    0    0    0    0    0    0    0    0    0
                                0    0    0    0    0    0    0    0    0    0
                                0    0    0    0    0    0    0    0    0    0
                                0    0    0    0    0    0    0    0    0    0

