1
 SUMMARY VOLUMETRIC BUDGET FOR GSFLOW 
 DATE: 10 07 1980              CUMULATIVE TIME STEP:       7
 MODFLOW STRESS PERIOD      2     CURRENT TIME STEP:       7     ITERATIONS:       6

 -----------------------------------------------------------------------------------

   CUMULATIVE VOLUMES               L**3   RATES FOR THIS TIME STEP           L**3/T
   ------------------                      ------------------------

                                     IN                                         IN
                                     --                                         --
        PRECIPITATION =                            PRECIPITATION =                  
           STREAMFLOW =                               STREAMFLOW =                  
     GW BOUNDARY FLOW =                         GW BOUNDARY FLOW =                  


                                    OUT                                        OUT
                                    ---                                        ---
   EVAPOTRANSPIRATION =          63606.14     EVAPOTRANSPIRATION =           9289.55
           STREAMFLOW =          42957.63             STREAMFLOW =           6065.77
     GW BOUNDARY FLOW =           4541.44       GW BOUNDARY FLOW =            648.70

   INFLOWS - OUTFLOWS =        -111105.20     INFLOWS - OUTFLOWS =         -16004.02
             --------                                   --------

 TOTAL STORAGE CHANGE =        -110649.42         STORAGE CHANGE =         -15935.71
       --------------                             --------------
         LAND SURFACE =                             LAND SURFACE =                  
            SOIL ZONE =          46910.91              SOIL ZONE =           6406.87
     UNSATURATED ZONE =        -144777.37       UNSATURATED ZONE =         -20360.11
       SATURATED ZONE =         -12782.96         SATURATED ZONE =          -1982.46

 OVERALL BUDGET ERROR =           -455.78           BUDGET ERROR =            -68.32


  PERCENT DISCREPANCY =             -0.41    PERCENT DISCREPANCY =             -0.43



1
 SUMMARY VOLUMETRIC BUDGET FOR GSFLOW 
 DATE: 10 14 1980              CUMULATIVE TIME STEP:      14
 MODFLOW STRESS PERIOD      2     CURRENT TIME STEP:      14     ITERATIONS:       6

 -----------------------------------------------------------------------------------

   CUMULATIVE VOLUMES               L**3   RATES FOR THIS TIME STEP           L**3/T
   ------------------                      ------------------------

                                     IN                                         IN
                                     --                                         --
        PRECIPITATION =         650779.83          PRECIPITATION =         164754.40
           STREAMFLOW =                               STREAMFLOW =                  
     GW BOUNDARY FLOW =                         GW BOUNDARY FLOW =                  


                                    OUT                                        OUT
                                    ---                                        ---
   EVAPOTRANSPIRATION =         159028.32     EVAPOTRANSPIRATION =          10554.56
           STREAMFLOW =          94507.15             STREAMFLOW =           7738.49
     GW BOUNDARY FLOW =           9082.96       GW BOUNDARY FLOW =            648.94

   INFLOWS - OUTFLOWS =         388161.40     INFLOWS - OUTFLOWS =         145812.41
             --------                                   --------

 TOTAL STORAGE CHANGE =         389132.36         STORAGE CHANGE =         145886.62
       --------------                             --------------
         LAND SURFACE =         183750.31           LAND SURFACE =         130549.56
            SOIL ZONE =         517315.49              SOIL ZONE =          37353.54
     UNSATURATED ZONE =        -284494.82       UNSATURATED ZONE =         -19624.14
       SATURATED ZONE =         -27438.61         SATURATED ZONE =          -2392.35

 OVERALL BUDGET ERROR =           -970.96           BUDGET ERROR =            -74.21


  PERCENT DISCREPANCY =             -0.15    PERCENT DISCREPANCY =             -0.05



1
 SUMMARY VOLUMETRIC BUDGET FOR GSFLOW 
 DATE: 10 21 1980              CUMULATIVE TIME STEP:      21
 MODFLOW STRESS PERIOD      2     CURRENT TIME STEP:      21     ITERATIONS:       6

 -----------------------------------------------------------------------------------

   CUMULATIVE VOLUMES               L**3   RATES FOR THIS TIME STEP           L**3/T
   ------------------                      ------------------------

                                     IN                                         IN
                                     --                                         --
        PRECIPITATION =         733157.03          PRECIPITATION =                  
           STREAMFLOW =                               STREAMFLOW =                  
     GW BOUNDARY FLOW =                         GW BOUNDARY FLOW =                  


                                    OUT                                        OUT
                                    ---                                        ---
   EVAPOTRANSPIRATION =         374215.40     EVAPOTRANSPIRATION =          30714.81
           STREAMFLOW =         146203.43             STREAMFLOW =           6989.14
     GW BOUNDARY FLOW =          13624.75       GW BOUNDARY FLOW =            648.75

   INFLOWS - OUTFLOWS =         199113.45     INFLOWS - OUTFLOWS =         -38352.69
             --------                                   --------

 TOTAL STORAGE CHANGE =         200592.26         STORAGE CHANGE =         -38273.80
       --------------                             --------------
         LAND SURFACE =                             LAND SURFACE =                  
            SOIL ZONE =         665602.74              SOIL ZONE =         -16428.86
     UNSATURATED ZONE =        -418658.82       UNSATURATED ZONE =         -18825.79
       SATURATED ZONE =         -46351.66         SATURATED ZONE =          -3019.14

 OVERALL BUDGET ERROR =          -1478.82           BUDGET ERROR =            -78.89


  PERCENT DISCREPANCY =             -0.20    PERCENT DISCREPANCY =             -0.21



1
 SUMMARY VOLUMETRIC BUDGET FOR GSFLOW 
 DATE: 10 28 1980              CUMULATIVE TIME STEP:      28
 MODFLOW STRESS PERIOD      2     CURRENT TIME STEP:      28     ITERATIONS:       6

 -----------------------------------------------------------------------------------

   CUMULATIVE VOLUMES               L**3   RATES FOR THIS TIME STEP           L**3/T
   ------------------                      ------------------------

                                     IN                                         IN
                                     --                                         --
        PRECIPITATION =        1070903.53          PRECIPITATION =                  
           STREAMFLOW =                               STREAMFLOW =                  
     GW BOUNDARY FLOW =                         GW BOUNDARY FLOW =                  


                                    OUT                                        OUT
                                    ---                                        ---
   EVAPOTRANSPIRATION =         546674.58     EVAPOTRANSPIRATION =          24800.27
           STREAMFLOW =         201242.76             STREAMFLOW =           8022.49
     GW BOUNDARY FLOW =          18166.08       GW BOUNDARY FLOW =            648.81

   INFLOWS - OUTFLOWS =         304820.10     INFLOWS - OUTFLOWS =         -33471.57
             --------                                   --------

 TOTAL STORAGE CHANGE =         306866.46         STORAGE CHANGE =         -33387.69
       --------------                             --------------
         LAND SURFACE =          20571.53           LAND SURFACE =         -29890.85
            SOIL ZONE =         902444.75              SOIL ZONE =          17979.54
     UNSATURATED ZONE =        -547243.20       UNSATURATED ZONE =         -18000.44
       SATURATED ZONE =         -68906.62         SATURATED ZONE =          -3475.93

 OVERALL BUDGET ERROR =          -2046.36           BUDGET ERROR =            -83.88


  PERCENT DISCREPANCY =             -0.19    PERCENT DISCREPANCY =             -0.25



1
 SUMMARY VOLUMETRIC BUDGET FOR GSFLOW 
 DATE: 11 04 1980              CUMULATIVE TIME STEP:      35
 MODFLOW STRESS PERIOD      2     CURRENT TIME STEP:      35     ITERATIONS:       8

 -----------------------------------------------------------------------------------

   CUMULATIVE VOLUMES               L**3   RATES FOR THIS TIME STEP           L**3/T
   ------------------                      ------------------------

                                     IN                                         IN
                                     --                                         --
        PRECIPITATION =        1070903.53          PRECIPITATION =                  
           STREAMFLOW =                               STREAMFLOW =                  
     GW BOUNDARY FLOW =                         GW BOUNDARY FLOW =                  


                                    OUT                                        OUT
                                    ---                                        ---
   EVAPOTRANSPIRATION =         814378.02     EVAPOTRANSPIRATION =          35711.25
           STREAMFLOW =         254115.05             STREAMFLOW =           7091.84
     GW BOUNDARY FLOW =          22707.14       GW BOUNDARY FLOW =            648.65

   INFLOWS - OUTFLOWS =         -20296.68     INFLOWS - OUTFLOWS =         -43451.74
             --------                                   --------

 TOTAL STORAGE CHANGE =         -17756.53         STORAGE CHANGE =         -43388.46
       --------------                             --------------
         LAND SURFACE =                             LAND SURFACE =                  
            SOIL ZONE =         748948.84              SOIL ZONE =         -21869.71
     UNSATURATED ZONE =        -670660.90       UNSATURATED ZONE =         -17362.87
       SATURATED ZONE =         -96044.47         SATURATED ZONE =          -4155.88

 OVERALL BUDGET ERROR =          -2540.15           BUDGET ERROR =            -63.28


  PERCENT DISCREPANCY =             -0.23    PERCENT DISCREPANCY =             -0.15



1
 SUMMARY VOLUMETRIC BUDGET FOR GSFLOW 
 DATE: 11 11 1980              CUMULATIVE TIME STEP:      42
 MODFLOW STRESS PERIOD      2     CURRENT TIME STEP:      42     ITERATIONS:       7

 -----------------------------------------------------------------------------------

   CUMULATIVE VOLUMES               L**3   RATES FOR THIS TIME STEP           L**3/T
   ------------------                      ------------------------

                                     IN                                         IN
                                     --                                         --
        PRECIPITATION =        1573762.54          PRECIPITATION =         255182.19
           STREAMFLOW =                               STREAMFLOW =                  
     GW BOUNDARY FLOW =                         GW BOUNDARY FLOW =                  


                                    OUT                                        OUT
                                    ---                                        ---
   EVAPOTRANSPIRATION =         998340.37     EVAPOTRANSPIRATION =          15410.74
           STREAMFLOW =         311069.76             STREAMFLOW =          10936.57
     GW BOUNDARY FLOW =          27247.98       GW BOUNDARY FLOW =            648.87

   INFLOWS - OUTFLOWS =         237104.43     INFLOWS - OUTFLOWS =         228186.02
             --------                                   --------

 TOTAL STORAGE CHANGE =         240172.68         STORAGE CHANGE =         228250.11
       --------------                             --------------
         LAND SURFACE =          76960.22           LAND SURFACE =          76747.38
            SOIL ZONE =        1078236.76              SOIL ZONE =         172100.76
     UNSATURATED ZONE =        -789152.11       UNSATURATED ZONE =         -16539.56
       SATURATED ZONE =        -125872.20         SATURATED ZONE =          -4058.47

 OVERALL BUDGET ERROR =          -3068.25           BUDGET ERROR =            -64.09


  PERCENT DISCREPANCY =             -0.19    PERCENT DISCREPANCY =             -0.03



1
 SUMMARY VOLUMETRIC BUDGET FOR GSFLOW 
 DATE: 11 18 1980              CUMULATIVE TIME STEP:      49
 MODFLOW STRESS PERIOD      2     CURRENT TIME STEP:      49     ITERATIONS:       7

 -----------------------------------------------------------------------------------

   CUMULATIVE VOLUMES               L**3   RATES FOR THIS TIME STEP           L**3/T
   ------------------                      ------------------------

                                     IN                                         IN
                                     --                                         --
        PRECIPITATION =        1573762.54          PRECIPITATION =                  
           STREAMFLOW =                               STREAMFLOW =                  
     GW BOUNDARY FLOW =                         GW BOUNDARY FLOW =                  


                                    OUT                                        OUT
                                    ---                                        ---
   EVAPOTRANSPIRATION =        1087408.51     EVAPOTRANSPIRATION =          14988.17
           STREAMFLOW =         374793.70             STREAMFLOW =           9429.67
     GW BOUNDARY FLOW =          31789.98       GW BOUNDARY FLOW =            648.88

   INFLOWS - OUTFLOWS =          79770.36     INFLOWS - OUTFLOWS =         -25066.72
             --------                                   --------

 TOTAL STORAGE CHANGE =          83459.77         STORAGE CHANGE =         -24987.63
       --------------                             --------------
         LAND SURFACE =           8139.47           LAND SURFACE =          -4965.50
            SOIL ZONE =        1136794.13              SOIL ZONE =            829.88
     UNSATURATED ZONE =        -903077.87       UNSATURATED ZONE =         -16033.19
       SATURATED ZONE =        -158395.96         SATURATED ZONE =          -4818.82

 OVERALL BUDGET ERROR =          -3689.42           BUDGET ERROR =            -79.09


  PERCENT DISCREPANCY =             -0.23    PERCENT DISCREPANCY =             -0.32



1
 SUMMARY VOLUMETRIC BUDGET FOR GSFLOW 
 DATE: 11 25 1980              CUMULATIVE TIME STEP:      56
 MODFLOW STRESS PERIOD      2     CURRENT TIME STEP:      56     ITERATIONS:       8

 -----------------------------------------------------------------------------------

   CUMULATIVE VOLUMES               L**3   RATES FOR THIS TIME STEP           L**3/T
   ------------------                      ------------------------

                                     IN                                         IN
                                     --                                         --
        PRECIPITATION =        1648816.13          PRECIPITATION =                  
           STREAMFLOW =                               STREAMFLOW =                  
     GW BOUNDARY FLOW =                         GW BOUNDARY FLOW =                  


                                    OUT                                        OUT
                                    ---                                        ---
   EVAPOTRANSPIRATION =        1162046.18     EVAPOTRANSPIRATION =           9313.15
           STREAMFLOW =         443041.65             STREAMFLOW =          10153.02
     GW BOUNDARY FLOW =          36332.39       GW BOUNDARY FLOW =            648.96

   INFLOWS - OUTFLOWS =           7395.91     INFLOWS - OUTFLOWS =         -20115.13
             --------                                   --------

 TOTAL STORAGE CHANGE =          11580.73         STORAGE CHANGE =         -20046.64
       --------------                             --------------
         LAND SURFACE =          54136.41           LAND SURFACE =          -9258.02
            SOIL ZONE =        1164548.53              SOIL ZONE =           9926.69
     UNSATURATED ZONE =       -1012774.40       UNSATURATED ZONE =         -15420.54
       SATURATED ZONE =        -194329.81         SATURATED ZONE =          -5294.77

 OVERALL BUDGET ERROR =          -4184.82           BUDGET ERROR =            -68.49


  PERCENT DISCREPANCY =             -0.25    PERCENT DISCREPANCY =             -0.34



1
 SUMMARY VOLUMETRIC BUDGET FOR GSFLOW 
 DATE: 12 02 1980              CUMULATIVE TIME STEP:      63
 MODFLOW STRESS PERIOD      2     CURRENT TIME STEP:      63     ITERATIONS:       7

 -----------------------------------------------------------------------------------

   CUMULATIVE VOLUMES               L**3   RATES FOR THIS TIME STEP           L**3/T
   ------------------                      ------------------------

                                     IN                                         IN
                                     --                                         --
        PRECIPITATION =        2076621.55          PRECIPITATION =                  
           STREAMFLOW =                               STREAMFLOW =                  
     GW BOUNDARY FLOW =                         GW BOUNDARY FLOW =                  


                                    OUT                                        OUT
                                    ---                                        ---
   EVAPOTRANSPIRATION =        1345735.73     EVAPOTRANSPIRATION =          33736.39
           STREAMFLOW =         529819.46             STREAMFLOW =          15726.10
     GW BOUNDARY FLOW =          40876.54       GW BOUNDARY FLOW =            649.48

   INFLOWS - OUTFLOWS =         160189.82     INFLOWS - OUTFLOWS =         -50111.97
             --------                                   --------

 TOTAL STORAGE CHANGE =         164843.26         STORAGE CHANGE =         -50035.04
       --------------                             --------------
         LAND SURFACE =         157031.21           LAND SURFACE =         -76789.76
            SOIL ZONE =        1351994.73              SOIL ZONE =          44090.71
     UNSATURATED ZONE =       -1114107.13       UNSATURATED ZONE =         -12813.15
       SATURATED ZONE =        -230075.55         SATURATED ZONE =          -4522.84

 OVERALL BUDGET ERROR =          -4653.43           BUDGET ERROR =            -76.93


  PERCENT DISCREPANCY =             -0.22    PERCENT DISCREPANCY =             -0.15



1
 SUMMARY VOLUMETRIC BUDGET FOR GSFLOW 
 DATE: 12 09 1980              CUMULATIVE TIME STEP:      70
 MODFLOW STRESS PERIOD      2     CURRENT TIME STEP:      70     ITERATIONS:       8

 -----------------------------------------------------------------------------------

   CUMULATIVE VOLUMES               L**3   RATES FOR THIS TIME STEP           L**3/T
   ------------------                      ------------------------

                                     IN                                         IN
                                     --                                         --
        PRECIPITATION =        4284363.63          PRECIPITATION =                  
           STREAMFLOW =                               STREAMFLOW =                  
     GW BOUNDARY FLOW =                         GW BOUNDARY FLOW =                  


                                    OUT                                        OUT
                                    ---                                        ---
   EVAPOTRANSPIRATION =        1371374.51     EVAPOTRANSPIRATION =           3258.35
           STREAMFLOW =         632198.76             STREAMFLOW =          14919.54
     GW BOUNDARY FLOW =          45423.76       GW BOUNDARY FLOW =            649.70

   INFLOWS - OUTFLOWS =        2235366.61     INFLOWS - OUTFLOWS =         -18827.59
             --------                                   --------

 TOTAL STORAGE CHANGE =        2240513.16         STORAGE CHANGE =         -18773.59
       --------------                             --------------
         LAND SURFACE =        2337504.39           LAND SURFACE =          -3258.35
            SOIL ZONE =        1384353.87              SOIL ZONE =           4693.91
     UNSATURATED ZONE =       -1212085.96       UNSATURATED ZONE =         -14206.66
       SATURATED ZONE =        -269259.14         SATURATED ZONE =          -6002.48

 OVERALL BUDGET ERROR =          -5146.56           BUDGET ERROR =            -54.01


  PERCENT DISCREPANCY =             -0.12    PERCENT DISCREPANCY =             -0.29



1
 SUMMARY VOLUMETRIC BUDGET FOR GSFLOW 
 DATE: 12 16 1980              CUMULATIVE TIME STEP:      77
 MODFLOW STRESS PERIOD      2     CURRENT TIME STEP:      77     ITERATIONS:       7

 -----------------------------------------------------------------------------------

   CUMULATIVE VOLUMES               L**3   RATES FOR THIS TIME STEP           L**3/T
   ------------------                      ------------------------

                                     IN                                         IN
                                     --                                         --
        PRECIPITATION =        4284363.63          PRECIPITATION =                  
           STREAMFLOW =                               STREAMFLOW =                  
     GW BOUNDARY FLOW =                         GW BOUNDARY FLOW =                  


                                    OUT                                        OUT
                                    ---                                        ---
   EVAPOTRANSPIRATION =        1515999.55     EVAPOTRANSPIRATION =          34476.11
           STREAMFLOW =         755868.11             STREAMFLOW =          25704.69
     GW BOUNDARY FLOW =          49972.76       GW BOUNDARY FLOW =            650.31

   INFLOWS - OUTFLOWS =        1962523.21     INFLOWS - OUTFLOWS =         -60831.11
             --------                                   --------

 TOTAL STORAGE CHANGE =        1968111.61         STORAGE CHANGE =         -60763.09
       --------------                             --------------
         LAND SURFACE =        2017009.26           LAND SURFACE =        -133032.45
            SOIL ZONE =        1561951.93              SOIL ZONE =          85365.24
     UNSATURATED ZONE =       -1301473.13       UNSATURATED ZONE =          -8792.66
       SATURATED ZONE =        -309376.44         SATURATED ZONE =          -4303.22

 OVERALL BUDGET ERROR =          -5588.40           BUDGET ERROR =            -68.02


  PERCENT DISCREPANCY =             -0.13    PERCENT DISCREPANCY =             -0.11



1
 SUMMARY VOLUMETRIC BUDGET FOR GSFLOW 
 DATE: 12 23 1980              CUMULATIVE TIME STEP:      84
 MODFLOW STRESS PERIOD      2     CURRENT TIME STEP:      84     ITERATIONS:       9

 -----------------------------------------------------------------------------------

   CUMULATIVE VOLUMES               L**3   RATES FOR THIS TIME STEP           L**3/T
   ------------------                      ------------------------

                                     IN                                         IN
                                     --                                         --
        PRECIPITATION =        4516757.54          PRECIPITATION =                  
           STREAMFLOW =                               STREAMFLOW =                  
     GW BOUNDARY FLOW =                         GW BOUNDARY FLOW =                  


                                    OUT                                        OUT
                                    ---                                        ---
   EVAPOTRANSPIRATION =        1724225.67     EVAPOTRANSPIRATION =          35848.50
           STREAMFLOW =         991051.68             STREAMFLOW =          31517.92
     GW BOUNDARY FLOW =          54533.77       GW BOUNDARY FLOW =            652.04

   INFLOWS - OUTFLOWS =        1746946.41     INFLOWS - OUTFLOWS =         -68018.46
             --------                                   --------

 TOTAL STORAGE CHANGE =        1752843.38         STORAGE CHANGE =         -67990.27
       --------------                             --------------
         LAND SURFACE =        1391476.44           LAND SURFACE =         -50626.27
            SOIL ZONE =        2035493.23              SOIL ZONE =          -8887.33
     UNSATURATED ZONE =       -1337442.77       UNSATURATED ZONE =          -4059.57
       SATURATED ZONE =        -336683.52         SATURATED ZONE =          -4417.10

 OVERALL BUDGET ERROR =          -5896.97           BUDGET ERROR =            -28.19


  PERCENT DISCREPANCY =             -0.13    PERCENT DISCREPANCY =             -0.04



1
 SUMMARY VOLUMETRIC BUDGET FOR GSFLOW 
 DATE: 12 30 1980              CUMULATIVE TIME STEP:      91
 MODFLOW STRESS PERIOD      2     CURRENT TIME STEP:      91     ITERATIONS:      11

 -----------------------------------------------------------------------------------

   CUMULATIVE VOLUMES               L**3   RATES FOR THIS TIME STEP           L**3/T
   ------------------                      ------------------------

                                     IN                                         IN
                                     --                                         --
        PRECIPITATION =        4516757.54          PRECIPITATION =                  
           STREAMFLOW =                               STREAMFLOW =                  
     GW BOUNDARY FLOW =                         GW BOUNDARY FLOW =                  


                                    OUT                                        OUT
                                    ---                                        ---
   EVAPOTRANSPIRATION =        2091947.93     EVAPOTRANSPIRATION =          47015.27
           STREAMFLOW =        1247158.22             STREAMFLOW =          28287.13
     GW BOUNDARY FLOW =          59101.44       GW BOUNDARY FLOW =            652.50

   INFLOWS - OUTFLOWS =        1118549.94     INFLOWS - OUTFLOWS =         -75954.90
             --------                                   --------

 TOTAL STORAGE CHANGE =        1124620.65         STORAGE CHANGE =         -75937.29
       --------------                             --------------
         LAND SURFACE =         579625.22           LAND SURFACE =         -42433.18
            SOIL ZONE =        2238707.70              SOIL ZONE =         -26087.04
     UNSATURATED ZONE =       -1334389.08       UNSATURATED ZONE =          -3539.86
       SATURATED ZONE =        -359323.19         SATURATED ZONE =          -3877.21

 OVERALL BUDGET ERROR =          -6070.70           BUDGET ERROR =            -17.60


  PERCENT DISCREPANCY =             -0.13    PERCENT DISCREPANCY =             -0.02



1
 SUMMARY VOLUMETRIC BUDGET FOR GSFLOW 
 DATE: 01 06 1981              CUMULATIVE TIME STEP:      98
 MODFLOW STRESS PERIOD      2     CURRENT TIME STEP:      98     ITERATIONS:       8

 -----------------------------------------------------------------------------------

   CUMULATIVE VOLUMES               L**3   RATES FOR THIS TIME STEP           L**3/T
   ------------------                      ------------------------

                                     IN                                         IN
                                     --                                         --
        PRECIPITATION =        5004445.43          PRECIPITATION =                  
           STREAMFLOW =                               STREAMFLOW =                  
     GW BOUNDARY FLOW =                         GW BOUNDARY FLOW =                  


                                    OUT                                        OUT
                                    ---                                        ---
   EVAPOTRANSPIRATION =        2309635.09     EVAPOTRANSPIRATION =          18975.60
           STREAMFLOW =        1398179.18             STREAMFLOW =          20335.46
     GW BOUNDARY FLOW =          63663.05       GW BOUNDARY FLOW =            651.18

   INFLOWS - OUTFLOWS =        1232968.11     INFLOWS - OUTFLOWS =         -39962.24
             --------                                   --------

 TOTAL STORAGE CHANGE =        1239242.87         STORAGE CHANGE =         -39920.84
       --------------                             --------------
         LAND SURFACE =         840075.41           LAND SURFACE =         -25549.73
            SOIL ZONE =        2200165.99              SOIL ZONE =           3090.71
     UNSATURATED ZONE =       -1404064.91       UNSATURATED ZONE =         -11590.84
       SATURATED ZONE =        -396933.61         SATURATED ZONE =          -5870.99

 OVERALL BUDGET ERROR =          -6274.76           BUDGET ERROR =            -41.40


  PERCENT DISCREPANCY =             -0.13    PERCENT DISCREPANCY =             -0.10



1
 SUMMARY VOLUMETRIC BUDGET FOR GSFLOW 
 DATE: 01 13 1981              CUMULATIVE TIME STEP:     105
 MODFLOW STRESS PERIOD      2     CURRENT TIME STEP:     105     ITERATIONS:       8

 -----------------------------------------------------------------------------------

   CUMULATIVE VOLUMES               L**3   RATES FOR THIS TIME STEP           L**3/T
   ------------------                      ------------------------

                                     IN                                         IN
                                     --                                         --
        PRECIPITATION =        5004445.43          PRECIPITATION =                  
           STREAMFLOW =                               STREAMFLOW =                  
     GW BOUNDARY FLOW =                         GW BOUNDARY FLOW =                  


                                    OUT                                        OUT
                                    ---                                        ---
   EVAPOTRANSPIRATION =        2511378.72     EVAPOTRANSPIRATION =          41906.73
           STREAMFLOW =        1543820.66             STREAMFLOW =          20114.76
     GW BOUNDARY FLOW =          68219.91       GW BOUNDARY FLOW =            650.83

   INFLOWS - OUTFLOWS =         881026.14     INFLOWS - OUTFLOWS =         -62672.32
             --------                                   --------

 TOTAL STORAGE CHANGE =         887560.50         STORAGE CHANGE =         -62632.29
       --------------                             --------------
         LAND SURFACE =         624161.65           LAND SURFACE =         -38673.92
            SOIL ZONE =        2177303.47              SOIL ZONE =          -8484.49
     UNSATURATED ZONE =       -1473881.38       UNSATURATED ZONE =          -9362.98
       SATURATED ZONE =        -440023.24         SATURATED ZONE =          -6110.91

 OVERALL BUDGET ERROR =          -6534.36           BUDGET ERROR =            -40.03


  PERCENT DISCREPANCY =             -0.13    PERCENT DISCREPANCY =             -0.06



1
 SUMMARY VOLUMETRIC BUDGET FOR GSFLOW 
 DATE: 01 20 1981              CUMULATIVE TIME STEP:     112
 MODFLOW STRESS PERIOD      2     CURRENT TIME STEP:     112     ITERATIONS:      11

 -----------------------------------------------------------------------------------

   CUMULATIVE VOLUMES               L**3   RATES FOR THIS TIME STEP           L**3/T
   ------------------                      ------------------------

                                     IN                                         IN
                                     --                                         --
        PRECIPITATION =        5170466.84          PRECIPITATION =          41505.35
           STREAMFLOW =                               STREAMFLOW =                  
     GW BOUNDARY FLOW =                         GW BOUNDARY FLOW =                  


                                    OUT                                        OUT
                                    ---                                        ---
   EVAPOTRANSPIRATION =        2776276.16     EVAPOTRANSPIRATION =          31075.53
           STREAMFLOW =        1686866.12             STREAMFLOW =          20142.42
     GW BOUNDARY FLOW =          72774.87       GW BOUNDARY FLOW =            650.65

   INFLOWS - OUTFLOWS =         634549.69     INFLOWS - OUTFLOWS =         -10363.25
             --------                                   --------

 TOTAL STORAGE CHANGE =         641425.65         STORAGE CHANGE =         -10342.04
       --------------                             --------------
         LAND SURFACE =         464145.89           LAND SURFACE =           8501.89
            SOIL ZONE =        2169760.11              SOIL ZONE =          -9798.70
     UNSATURATED ZONE =       -1507465.47       UNSATURATED ZONE =          -2399.33
       SATURATED ZONE =        -485014.89         SATURATED ZONE =          -6645.90

 OVERALL BUDGET ERROR =          -6875.95           BUDGET ERROR =            -21.22


  PERCENT DISCREPANCY =             -0.13    PERCENT DISCREPANCY =             -0.04



1
 SUMMARY VOLUMETRIC BUDGET FOR GSFLOW 
 DATE: 01 27 1981              CUMULATIVE TIME STEP:     119
 MODFLOW STRESS PERIOD      2     CURRENT TIME STEP:     119     ITERATIONS:       8

 -----------------------------------------------------------------------------------

   CUMULATIVE VOLUMES               L**3   RATES FOR THIS TIME STEP           L**3/T
   ------------------                      ------------------------

                                     IN                                         IN
                                     --                                         --
        PRECIPITATION =        8646540.08          PRECIPITATION =        2936503.63
           STREAMFLOW =                               STREAMFLOW =                  
     GW BOUNDARY FLOW =                         GW BOUNDARY FLOW =                  


                                    OUT                                        OUT
                                    ---                                        ---
   EVAPOTRANSPIRATION =        2998349.05     EVAPOTRANSPIRATION =          12639.57
           STREAMFLOW =        1831339.56             STREAMFLOW =          18645.38
     GW BOUNDARY FLOW =          77329.16       GW BOUNDARY FLOW =            650.43

   INFLOWS - OUTFLOWS =        3739522.31     INFLOWS - OUTFLOWS =        2904568.25
             --------                                   --------

 TOTAL STORAGE CHANGE =        3746597.15         STORAGE CHANGE =        2904602.46
       --------------                             --------------
         LAND SURFACE =        3592460.11           LAND SURFACE =        2923864.12
            SOIL ZONE =        2190150.54              SOIL ZONE =          -6280.12
     UNSATURATED ZONE =       -1505515.06       UNSATURATED ZONE =          -6119.78
       SATURATED ZONE =        -530498.44         SATURATED ZONE =          -6861.76

 OVERALL BUDGET ERROR =          -7074.84           BUDGET ERROR =            -34.21


  PERCENT DISCREPANCY =             -0.08    PERCENT DISCREPANCY =             -0.00



1
 SUMMARY VOLUMETRIC BUDGET FOR GSFLOW 
 DATE: 02 03 1981              CUMULATIVE TIME STEP:     126
 MODFLOW STRESS PERIOD      2     CURRENT TIME STEP:     126     ITERATIONS:       8

 -----------------------------------------------------------------------------------

   CUMULATIVE VOLUMES               L**3   RATES FOR THIS TIME STEP           L**3/T
   ------------------                      ------------------------

                                     IN                                         IN
                                     --                                         --
        PRECIPITATION =        1.1739D+07          PRECIPITATION =                  
           STREAMFLOW =                               STREAMFLOW =                  
     GW BOUNDARY FLOW =                         GW BOUNDARY FLOW =                  


                                    OUT                                        OUT
                                    ---                                        ---
   EVAPOTRANSPIRATION =        3033540.41     EVAPOTRANSPIRATION =           7106.06
           STREAMFLOW =        1958467.23             STREAMFLOW =          18061.27
     GW BOUNDARY FLOW =          81881.30       GW BOUNDARY FLOW =            650.26

   INFLOWS - OUTFLOWS =        6664799.83     INFLOWS - OUTFLOWS =         -25817.59
             --------                                   --------

 TOTAL STORAGE CHANGE =        6672078.49         STORAGE CHANGE =         -25788.50
       --------------                             --------------
         LAND SURFACE =        6649417.45           LAND SURFACE =          -7106.06
            SOIL ZONE =        2182101.46              SOIL ZONE =            508.75
     UNSATURATED ZONE =       -1577605.43       UNSATURATED ZONE =         -11482.20
       SATURATED ZONE =        -581834.99         SATURATED ZONE =          -7708.98

 OVERALL BUDGET ERROR =          -7278.66           BUDGET ERROR =            -29.09


  PERCENT DISCREPANCY =             -0.06    PERCENT DISCREPANCY =             -0.11



1
 SUMMARY VOLUMETRIC BUDGET FOR GSFLOW 
 DATE: 02 10 1981              CUMULATIVE TIME STEP:     133
 MODFLOW STRESS PERIOD      2     CURRENT TIME STEP:     133     ITERATIONS:       7

 -----------------------------------------------------------------------------------

   CUMULATIVE VOLUMES               L**3   RATES FOR THIS TIME STEP           L**3/T
   ------------------                      ------------------------

                                     IN                                         IN
                                     --                                         --
        PRECIPITATION =        1.1838D+07          PRECIPITATION =                  
           STREAMFLOW =                               STREAMFLOW =                  
     GW BOUNDARY FLOW =                         GW BOUNDARY FLOW =                  


                                    OUT                                        OUT
                                    ---                                        ---
   EVAPOTRANSPIRATION =        3154643.93     EVAPOTRANSPIRATION =          32343.27
           STREAMFLOW =        2085104.99             STREAMFLOW =          18110.72
     GW BOUNDARY FLOW =          86433.11       GW BOUNDARY FLOW =            650.25

   INFLOWS - OUTFLOWS =        6512071.25     INFLOWS - OUTFLOWS =         -51104.24
             --------                                   --------

 TOTAL STORAGE CHANGE =        6519720.29         STORAGE CHANGE =         -51041.31
       --------------                             --------------
         LAND SURFACE =        6627878.44           LAND SURFACE =         -32343.27
            SOIL ZONE =        2186059.60              SOIL ZONE =            522.60
     UNSATURATED ZONE =       -1655569.04       UNSATURATED ZONE =         -10795.20
       SATURATED ZONE =        -638648.71         SATURATED ZONE =          -8425.43

 OVERALL BUDGET ERROR =          -7649.04           BUDGET ERROR =            -62.93


  PERCENT DISCREPANCY =             -0.06    PERCENT DISCREPANCY =             -0.12



1
 SUMMARY VOLUMETRIC BUDGET FOR GSFLOW 
 DATE: 02 17 1981              CUMULATIVE TIME STEP:     140
 MODFLOW STRESS PERIOD      2     CURRENT TIME STEP:     140     ITERATIONS:      15

 -----------------------------------------------------------------------------------

   CUMULATIVE VOLUMES               L**3   RATES FOR THIS TIME STEP           L**3/T
   ------------------                      ------------------------

                                     IN                                         IN
                                     --                                         --
        PRECIPITATION =        1.2765D+07          PRECIPITATION =          68929.28
           STREAMFLOW =                               STREAMFLOW =                  
     GW BOUNDARY FLOW =                         GW BOUNDARY FLOW =                  


                                    OUT                                        OUT
                                    ---                                        ---
   EVAPOTRANSPIRATION =        3480410.82     EVAPOTRANSPIRATION =          59831.41
           STREAMFLOW =        2605803.42             STREAMFLOW =         121413.85
     GW BOUNDARY FLOW =          91005.97       GW BOUNDARY FLOW =            656.65

   INFLOWS - OUTFLOWS =        6587748.90     INFLOWS - OUTFLOWS =        -112972.64
             --------                                   --------

 TOTAL STORAGE CHANGE =        6595674.38         STORAGE CHANGE =        -112961.99
       --------------                             --------------
         LAND SURFACE =        5733342.67           LAND SURFACE =        -263707.48
            SOIL ZONE =        2945964.21              SOIL ZONE =          72918.18
     UNSATURATED ZONE =       -1426397.75       UNSATURATED ZONE =          75632.81
       SATURATED ZONE =        -657234.74         SATURATED ZONE =           2194.51

 OVERALL BUDGET ERROR =          -7925.48           BUDGET ERROR =            -10.65


  PERCENT DISCREPANCY =             -0.06    PERCENT DISCREPANCY =             -0.01



1
 SUMMARY VOLUMETRIC BUDGET FOR GSFLOW 
 DATE: 02 24 1981              CUMULATIVE TIME STEP:     147
 MODFLOW STRESS PERIOD      2     CURRENT TIME STEP:     147     ITERATIONS:      14

 -----------------------------------------------------------------------------------

   CUMULATIVE VOLUMES               L**3   RATES FOR THIS TIME STEP           L**3/T
   ------------------                      ------------------------

                                     IN                                         IN
                                     --                                         --
        PRECIPITATION =        1.3179D+07          PRECIPITATION =         344646.37
           STREAMFLOW =                               STREAMFLOW =                  
     GW BOUNDARY FLOW =                         GW BOUNDARY FLOW =                  


                                    OUT                                        OUT
                                    ---                                        ---
   EVAPOTRANSPIRATION =        3812786.91     EVAPOTRANSPIRATION =          18156.56
           STREAMFLOW =        3160290.11             STREAMFLOW =          50195.31
     GW BOUNDARY FLOW =          95598.63       GW BOUNDARY FLOW =            655.07

   INFLOWS - OUTFLOWS =        6109869.10     INFLOWS - OUTFLOWS =         275639.42
             --------                                   --------

 TOTAL STORAGE CHANGE =        6117777.59         STORAGE CHANGE =         275629.83
       --------------                             --------------
         LAND SURFACE =        5134001.49           LAND SURFACE =         302140.02
            SOIL ZONE =        2690488.66              SOIL ZONE =         -55972.96
     UNSATURATED ZONE =       -1071401.43       UNSATURATED ZONE =          27317.99
       SATURATED ZONE =        -635311.14         SATURATED ZONE =           2144.78

 OVERALL BUDGET ERROR =          -7908.49           BUDGET ERROR =              9.60


  PERCENT DISCREPANCY =             -0.06    PERCENT DISCREPANCY =              0.00



1
 SUMMARY VOLUMETRIC BUDGET FOR GSFLOW 
 DATE: 03 03 1981              CUMULATIVE TIME STEP:     154
 MODFLOW STRESS PERIOD      2     CURRENT TIME STEP:     154     ITERATIONS:      11

 -----------------------------------------------------------------------------------

   CUMULATIVE VOLUMES               L**3   RATES FOR THIS TIME STEP           L**3/T
   ------------------                      ------------------------

                                     IN                                         IN
                                     --                                         --
        PRECIPITATION =        1.3447D+07          PRECIPITATION =                  
           STREAMFLOW =                               STREAMFLOW =                  
     GW BOUNDARY FLOW =                         GW BOUNDARY FLOW =                  


                                    OUT                                        OUT
                                    ---                                        ---
   EVAPOTRANSPIRATION =        3959572.88     EVAPOTRANSPIRATION =          40644.00
           STREAMFLOW =        3381110.14             STREAMFLOW =          27138.61
     GW BOUNDARY FLOW =         100171.21       GW BOUNDARY FLOW =            652.27

   INFLOWS - OUTFLOWS =        6005748.82     INFLOWS - OUTFLOWS =         -68434.88
             --------                                   --------

 TOTAL STORAGE CHANGE =        6013545.50         STORAGE CHANGE =         -68449.50
       --------------                             --------------
         LAND SURFACE =        5236571.40           LAND SURFACE =         -57449.18
            SOIL ZONE =        2485032.75              SOIL ZONE =            470.34
     UNSATURATED ZONE =       -1067168.73       UNSATURATED ZONE =          -9159.39
       SATURATED ZONE =        -640889.92         SATURATED ZONE =          -2311.27

 OVERALL BUDGET ERROR =          -7796.68           BUDGET ERROR =             14.62


  PERCENT DISCREPANCY =             -0.06    PERCENT DISCREPANCY =              0.02



1
 SUMMARY VOLUMETRIC BUDGET FOR GSFLOW 
 DATE: 03 10 1981              CUMULATIVE TIME STEP:     161
 MODFLOW STRESS PERIOD      2     CURRENT TIME STEP:     161     ITERATIONS:      11

 -----------------------------------------------------------------------------------

   CUMULATIVE VOLUMES               L**3   RATES FOR THIS TIME STEP           L**3/T
   ------------------                      ------------------------

                                     IN                                         IN
                                     --                                         --
        PRECIPITATION =        1.3493D+07          PRECIPITATION =                  
           STREAMFLOW =                               STREAMFLOW =                  
     GW BOUNDARY FLOW =                         GW BOUNDARY FLOW =                  


                                    OUT                                        OUT
                                    ---                                        ---
   EVAPOTRANSPIRATION =        4271433.01     EVAPOTRANSPIRATION =          67192.35
           STREAMFLOW =        3602275.42             STREAMFLOW =          40300.30
     GW BOUNDARY FLOW =         104736.24       GW BOUNDARY FLOW =            652.70

   INFLOWS - OUTFLOWS =        5514496.48     INFLOWS - OUTFLOWS =        -108145.35
             --------                                   --------

 TOTAL STORAGE CHANGE =        5522234.13         STORAGE CHANGE =        -108148.19
       --------------                             --------------
         LAND SURFACE =        4665498.34           LAND SURFACE =        -147188.93
            SOIL ZONE =        2573554.35              SOIL ZONE =          24803.01
     UNSATURATED ZONE =       -1059893.64       UNSATURATED ZONE =          15420.20
       SATURATED ZONE =        -656924.93         SATURATED ZONE =          -1182.46

 OVERALL BUDGET ERROR =          -7737.64           BUDGET ERROR =              2.85


  PERCENT DISCREPANCY =             -0.06    PERCENT DISCREPANCY =              0.00



1
 SUMMARY VOLUMETRIC BUDGET FOR GSFLOW 
 DATE: 03 17 1981              CUMULATIVE TIME STEP:     168
 MODFLOW STRESS PERIOD      2     CURRENT TIME STEP:     168     ITERATIONS:       9

 -----------------------------------------------------------------------------------

   CUMULATIVE VOLUMES               L**3   RATES FOR THIS TIME STEP           L**3/T
   ------------------                      ------------------------

                                     IN                                         IN
                                     --                                         --
        PRECIPITATION =        1.3744D+07          PRECIPITATION =                  
           STREAMFLOW =                               STREAMFLOW =                  
     GW BOUNDARY FLOW =                         GW BOUNDARY FLOW =                  


                                    OUT                                        OUT
                                    ---                                        ---
   EVAPOTRANSPIRATION =        4588105.69     EVAPOTRANSPIRATION =          33262.65
           STREAMFLOW =        3818904.16             STREAMFLOW =          23613.58
     GW BOUNDARY FLOW =         109302.40       GW BOUNDARY FLOW =            651.78

   INFLOWS - OUTFLOWS =        5228178.64     INFLOWS - OUTFLOWS =         -57528.00
             --------                                   --------

 TOTAL STORAGE CHANGE =        5235865.46         STORAGE CHANGE =         -57536.34
       --------------                             --------------
         LAND SURFACE =        4532338.70           LAND SURFACE =         -32994.50
            SOIL ZONE =        2437558.52              SOIL ZONE =          -5001.37
     UNSATURATED ZONE =       -1056471.09       UNSATURATED ZONE =         -14848.18
       SATURATED ZONE =        -677560.68         SATURATED ZONE =          -4692.29

 OVERALL BUDGET ERROR =          -7686.81           BUDGET ERROR =              8.34


  PERCENT DISCREPANCY =             -0.06    PERCENT DISCREPANCY =              0.01



1
 SUMMARY VOLUMETRIC BUDGET FOR GSFLOW 
 DATE: 03 24 1981              CUMULATIVE TIME STEP:     175
 MODFLOW STRESS PERIOD      2     CURRENT TIME STEP:     175     ITERATIONS:       9

 -----------------------------------------------------------------------------------

   CUMULATIVE VOLUMES               L**3   RATES FOR THIS TIME STEP           L**3/T
   ------------------                      ------------------------

                                     IN                                         IN
                                     --                                         --
        PRECIPITATION =        1.4367D+07          PRECIPITATION =                  
           STREAMFLOW =                               STREAMFLOW =                  
     GW BOUNDARY FLOW =                         GW BOUNDARY FLOW =                  


                                    OUT                                        OUT
                                    ---                                        ---
   EVAPOTRANSPIRATION =        4907928.96     EVAPOTRANSPIRATION =          80764.17
           STREAMFLOW =        3983603.15             STREAMFLOW =          25036.04
     GW BOUNDARY FLOW =         113861.88       GW BOUNDARY FLOW =            651.26

   INFLOWS - OUTFLOWS =        5361351.52     INFLOWS - OUTFLOWS =        -106451.47
             --------                                   --------

 TOTAL STORAGE CHANGE =        5369059.17         STORAGE CHANGE =        -106448.50
       --------------                             --------------
         LAND SURFACE =        4882235.51           LAND SURFACE =         -56598.13
            SOIL ZONE =        2339297.54              SOIL ZONE =         -37991.43
     UNSATURATED ZONE =       -1136922.14       UNSATURATED ZONE =          -6408.80
       SATURATED ZONE =        -715551.74         SATURATED ZONE =          -5450.15

 OVERALL BUDGET ERROR =          -7707.65           BUDGET ERROR =             -2.97


  PERCENT DISCREPANCY =             -0.05    PERCENT DISCREPANCY =             -0.00



1
 SUMMARY VOLUMETRIC BUDGET FOR GSFLOW 
 DATE: 03 31 1981              CUMULATIVE TIME STEP:     182
 MODFLOW STRESS PERIOD      2     CURRENT TIME STEP:     182     ITERATIONS:      12

 -----------------------------------------------------------------------------------

   CUMULATIVE VOLUMES               L**3   RATES FOR THIS TIME STEP           L**3/T
   ------------------                      ------------------------

                                     IN                                         IN
                                     --                                         --
        PRECIPITATION =        1.5777D+07          PRECIPITATION =                  
           STREAMFLOW =                               STREAMFLOW =                  
     GW BOUNDARY FLOW =                         GW BOUNDARY FLOW =                  


                                    OUT                                        OUT
                                    ---                                        ---
   EVAPOTRANSPIRATION =        5296102.26     EVAPOTRANSPIRATION =          42424.06
           STREAMFLOW =        4431617.91             STREAMFLOW =          33654.95
     GW BOUNDARY FLOW =         118440.23       GW BOUNDARY FLOW =            653.15

   INFLOWS - OUTFLOWS =        5930587.59     INFLOWS - OUTFLOWS =         -76732.16
             --------                                   --------

 TOTAL STORAGE CHANGE =        5938248.38         STORAGE CHANGE =         -76741.31
       --------------                             --------------
         LAND SURFACE =        5101875.75           LAND SURFACE =         -42987.31
            SOIL ZONE =        2505864.12              SOIL ZONE =         -32433.07
     UNSATURATED ZONE =        -950238.56       UNSATURATED ZONE =           1116.09
       SATURATED ZONE =        -719252.92         SATURATED ZONE =          -2437.02

 OVERALL BUDGET ERROR =          -7660.80           BUDGET ERROR =              9.16


  PERCENT DISCREPANCY =             -0.05    PERCENT DISCREPANCY =              0.01



1
 SUMMARY VOLUMETRIC BUDGET FOR GSFLOW 
 DATE: 04 07 1981              CUMULATIVE TIME STEP:     189
 MODFLOW STRESS PERIOD      2     CURRENT TIME STEP:     189     ITERATIONS:      10

 -----------------------------------------------------------------------------------

   CUMULATIVE VOLUMES               L**3   RATES FOR THIS TIME STEP           L**3/T
   ------------------                      ------------------------

                                     IN                                         IN
                                     --                                         --
        PRECIPITATION =        1.6121D+07          PRECIPITATION =                  
           STREAMFLOW =                               STREAMFLOW =                  
     GW BOUNDARY FLOW =                         GW BOUNDARY FLOW =                  


                                    OUT                                        OUT
                                    ---                                        ---
   EVAPOTRANSPIRATION =        5890551.06     EVAPOTRANSPIRATION =          97287.85
           STREAMFLOW =        4726430.43             STREAMFLOW =          42143.10
     GW BOUNDARY FLOW =         123013.17       GW BOUNDARY FLOW =            653.55

   INFLOWS - OUTFLOWS =        5381472.94     INFLOWS - OUTFLOWS =        -140084.51
             --------                                   --------

 TOTAL STORAGE CHANGE =        5389069.36         STORAGE CHANGE =        -140098.41
       --------------                             --------------
         LAND SURFACE =        4536824.49           LAND SURFACE =        -138203.79
            SOIL ZONE =        2467307.13              SOIL ZONE =         -11864.56
     UNSATURATED ZONE =        -886406.99       UNSATURATED ZONE =          10705.77
       SATURATED ZONE =        -728655.27         SATURATED ZONE =           -735.83

 OVERALL BUDGET ERROR =          -7596.42           BUDGET ERROR =             13.90


  PERCENT DISCREPANCY =             -0.05    PERCENT DISCREPANCY =              0.01



1
 SUMMARY VOLUMETRIC BUDGET FOR GSFLOW 
 DATE: 04 14 1981              CUMULATIVE TIME STEP:     196
 MODFLOW STRESS PERIOD      2     CURRENT TIME STEP:     196     ITERATIONS:      13

 -----------------------------------------------------------------------------------

   CUMULATIVE VOLUMES               L**3   RATES FOR THIS TIME STEP           L**3/T
   ------------------                      ------------------------

                                     IN                                         IN
                                     --                                         --
        PRECIPITATION =        1.6121D+07          PRECIPITATION =                  
           STREAMFLOW =                               STREAMFLOW =                  
     GW BOUNDARY FLOW =                         GW BOUNDARY FLOW =                  


                                    OUT                                        OUT
                                    ---                                        ---
   EVAPOTRANSPIRATION =        6753980.22     EVAPOTRANSPIRATION =         187136.52
           STREAMFLOW =        5063994.13             STREAMFLOW =          60930.12
     GW BOUNDARY FLOW =         127588.87       GW BOUNDARY FLOW =            653.96

   INFLOWS - OUTFLOWS =        4175904.38     INFLOWS - OUTFLOWS =        -248720.60
             --------                                   --------

 TOTAL STORAGE CHANGE =        4183387.36         STORAGE CHANGE =        -248726.55
       --------------                             --------------
         LAND SURFACE =        3249108.87           LAND SURFACE =        -276414.16
            SOIL ZONE =        2439003.70              SOIL ZONE =           -676.08
     UNSATURATED ZONE =        -775432.52       UNSATURATED ZONE =          26585.45
       SATURATED ZONE =        -729292.69         SATURATED ZONE =           1778.25

 OVERALL BUDGET ERROR =          -7482.98           BUDGET ERROR =              5.95


  PERCENT DISCREPANCY =             -0.05    PERCENT DISCREPANCY =              0.00



1
 SUMMARY VOLUMETRIC BUDGET FOR GSFLOW 
 DATE: 04 21 1981              CUMULATIVE TIME STEP:     203
 MODFLOW STRESS PERIOD      2     CURRENT TIME STEP:     203     ITERATIONS:      14

 -----------------------------------------------------------------------------------

   CUMULATIVE VOLUMES               L**3   RATES FOR THIS TIME STEP           L**3/T
   ------------------                      ------------------------

                                     IN                                         IN
                                     --                                         --
        PRECIPITATION =        1.6310D+07          PRECIPITATION =                  
           STREAMFLOW =                               STREAMFLOW =                  
     GW BOUNDARY FLOW =                         GW BOUNDARY FLOW =                  


                                    OUT                                        OUT
                                    ---                                        ---
   EVAPOTRANSPIRATION =        7798380.19     EVAPOTRANSPIRATION =         153837.65
           STREAMFLOW =        5451055.17             STREAMFLOW =          53926.00
     GW BOUNDARY FLOW =         132163.26       GW BOUNDARY FLOW =            653.13

   INFLOWS - OUTFLOWS =        2928644.02     INFLOWS - OUTFLOWS =        -208416.78
             --------                                   --------

 TOTAL STORAGE CHANGE =        2936031.64         STORAGE CHANGE =        -208420.41
       --------------                             --------------
         LAND SURFACE =        1941586.44           LAND SURFACE =        -141315.80
            SOIL ZONE =        2325110.39              SOIL ZONE =         -93516.13
     UNSATURATED ZONE =        -618476.41       UNSATURATED ZONE =          23247.87
       SATURATED ZONE =        -712188.78         SATURATED ZONE =           3163.65

 OVERALL BUDGET ERROR =          -7387.63           BUDGET ERROR =              3.64


  PERCENT DISCREPANCY =             -0.05    PERCENT DISCREPANCY =              0.00



1
 SUMMARY VOLUMETRIC BUDGET FOR GSFLOW 
 DATE: 04 28 1981              CUMULATIVE TIME STEP:     210
 MODFLOW STRESS PERIOD      2     CURRENT TIME STEP:     210     ITERATIONS:      14

 -----------------------------------------------------------------------------------

   CUMULATIVE VOLUMES               L**3   RATES FOR THIS TIME STEP           L**3/T
   ------------------                      ------------------------

                                     IN                                         IN
                                     --                                         --
        PRECIPITATION =        1.6515D+07          PRECIPITATION =                  
           STREAMFLOW =                               STREAMFLOW =                  
     GW BOUNDARY FLOW =                         GW BOUNDARY FLOW =                  


                                    OUT                                        OUT
                                    ---                                        ---
   EVAPOTRANSPIRATION =        9056759.35     EVAPOTRANSPIRATION =         210387.62
           STREAMFLOW =        5711144.43             STREAMFLOW =          30410.50
     GW BOUNDARY FLOW =         136726.71       GW BOUNDARY FLOW =            650.99

   INFLOWS - OUTFLOWS =        1610802.39     INFLOWS - OUTFLOWS =        -241449.10
             --------                                   --------

 TOTAL STORAGE CHANGE =        1618068.69         STORAGE CHANGE =        -241463.65
       --------------                             --------------
         LAND SURFACE =        1047886.52           LAND SURFACE =        -108965.88
            SOIL ZONE =        1831603.01              SOIL ZONE =        -137880.86
     UNSATURATED ZONE =        -563021.34       UNSATURATED ZONE =           3776.66
       SATURATED ZONE =        -698399.51         SATURATED ZONE =           1606.43

 OVERALL BUDGET ERROR =          -7266.30           BUDGET ERROR =             14.55


  PERCENT DISCREPANCY =             -0.04    PERCENT DISCREPANCY =              0.01



1
 SUMMARY VOLUMETRIC BUDGET FOR GSFLOW 
 DATE: 05 05 1981              CUMULATIVE TIME STEP:     217
 MODFLOW STRESS PERIOD      2     CURRENT TIME STEP:     217     ITERATIONS:      14

 -----------------------------------------------------------------------------------

   CUMULATIVE VOLUMES               L**3   RATES FOR THIS TIME STEP           L**3/T
   ------------------                      ------------------------

                                     IN                                         IN
                                     --                                         --
        PRECIPITATION =        1.6515D+07          PRECIPITATION =                  
           STREAMFLOW =                               STREAMFLOW =                  
     GW BOUNDARY FLOW =                         GW BOUNDARY FLOW =                  


                                    OUT                                        OUT
                                    ---                                        ---
   EVAPOTRANSPIRATION =        9913892.40     EVAPOTRANSPIRATION =          47002.84
           STREAMFLOW =        5833970.24             STREAMFLOW =          11706.42
     GW BOUNDARY FLOW =         141275.54       GW BOUNDARY FLOW =            649.00

   INFLOWS - OUTFLOWS =         626294.71     INFLOWS - OUTFLOWS =         -59358.26
             --------                                   --------

 TOTAL STORAGE CHANGE =         633465.64         STORAGE CHANGE =         -59372.83
       --------------                             --------------
         LAND SURFACE =         583908.85           LAND SURFACE =         -19597.75
            SOIL ZONE =        1387126.86              SOIL ZONE =         -23365.11
     UNSATURATED ZONE =        -631217.77       UNSATURATED ZONE =         -14267.42
       SATURATED ZONE =        -706352.31         SATURATED ZONE =          -2142.54

 OVERALL BUDGET ERROR =          -7170.93           BUDGET ERROR =             14.57


  PERCENT DISCREPANCY =             -0.04    PERCENT DISCREPANCY =              0.02



1
 SUMMARY VOLUMETRIC BUDGET FOR GSFLOW 
 DATE: 05 12 1981              CUMULATIVE TIME STEP:     224
 MODFLOW STRESS PERIOD      2     CURRENT TIME STEP:     224     ITERATIONS:      12

 -----------------------------------------------------------------------------------

   CUMULATIVE VOLUMES               L**3   RATES FOR THIS TIME STEP           L**3/T
   ------------------                      ------------------------

                                     IN                                         IN
                                     --                                         --
        PRECIPITATION =        1.6515D+07          PRECIPITATION =                  
           STREAMFLOW =                               STREAMFLOW =                  
     GW BOUNDARY FLOW =                         GW BOUNDARY FLOW =                  


                                    OUT                                        OUT
                                    ---                                        ---
   EVAPOTRANSPIRATION =        1.0446D+07     EVAPOTRANSPIRATION =         101726.50
           STREAMFLOW =        5914991.51             STREAMFLOW =          12820.67
     GW BOUNDARY FLOW =         145815.53       GW BOUNDARY FLOW =            648.47

   INFLOWS - OUTFLOWS =           8953.29     INFLOWS - OUTFLOWS =        -115195.65
             --------                                   --------

 TOTAL STORAGE CHANGE =          16082.71         STORAGE CHANGE =        -115199.25
       --------------                             --------------
         LAND SURFACE =         364139.11           LAND SURFACE =         -39545.56
            SOIL ZONE =        1105518.65              SOIL ZONE =         -60901.83
     UNSATURATED ZONE =        -724447.48       UNSATURATED ZONE =         -10546.49
       SATURATED ZONE =        -729127.57         SATURATED ZONE =          -4205.37

 OVERALL BUDGET ERROR =          -7129.42           BUDGET ERROR =              3.61


  PERCENT DISCREPANCY =             -0.04    PERCENT DISCREPANCY =              0.00



1
 SUMMARY VOLUMETRIC BUDGET FOR GSFLOW 
 DATE: 05 19 1981              CUMULATIVE TIME STEP:     231
 MODFLOW STRESS PERIOD      2     CURRENT TIME STEP:     231     ITERATIONS:      19

 -----------------------------------------------------------------------------------

   CUMULATIVE VOLUMES               L**3   RATES FOR THIS TIME STEP           L**3/T
   ------------------                      ------------------------

                                     IN                                         IN
                                     --                                         --
        PRECIPITATION =        1.7837D+07          PRECIPITATION =         169045.43
           STREAMFLOW =                               STREAMFLOW =                  
     GW BOUNDARY FLOW =                         GW BOUNDARY FLOW =                  


                                    OUT                                        OUT
                                    ---                                        ---
   EVAPOTRANSPIRATION =        1.0792D+07     EVAPOTRANSPIRATION =          31098.89
           STREAMFLOW =        6069515.24             STREAMFLOW =          31801.51
     GW BOUNDARY FLOW =         150357.10       GW BOUNDARY FLOW =            649.98

   INFLOWS - OUTFLOWS =         825589.12     INFLOWS - OUTFLOWS =         105495.05
             --------                                   --------

 TOTAL STORAGE CHANGE =         832687.63         STORAGE CHANGE =         105491.32
       --------------                             --------------
         LAND SURFACE =         315733.69           LAND SURFACE =          16905.78
            SOIL ZONE =        2042174.73              SOIL ZONE =          86063.14
     UNSATURATED ZONE =        -762613.75       UNSATURATED ZONE =           6653.53
       SATURATED ZONE =        -762607.04         SATURATED ZONE =          -4131.13

 OVERALL BUDGET ERROR =          -7098.51           BUDGET ERROR =              3.73


  PERCENT DISCREPANCY =             -0.04    PERCENT DISCREPANCY =              0.00



1
 SUMMARY VOLUMETRIC BUDGET FOR GSFLOW 
 DATE: 05 26 1981              CUMULATIVE TIME STEP:     238
 MODFLOW STRESS PERIOD      2     CURRENT TIME STEP:     238     ITERATIONS:      14

 -----------------------------------------------------------------------------------

   CUMULATIVE VOLUMES               L**3   RATES FOR THIS TIME STEP           L**3/T
   ------------------                      ------------------------

                                     IN                                         IN
                                     --                                         --
        PRECIPITATION =        1.8252D+07          PRECIPITATION =         284303.67
           STREAMFLOW =                               STREAMFLOW =                  
     GW BOUNDARY FLOW =                         GW BOUNDARY FLOW =                  


                                    OUT                                        OUT
                                    ---                                        ---
   EVAPOTRANSPIRATION =        1.1581D+07     EVAPOTRANSPIRATION =         126247.52
           STREAMFLOW =        6207385.43             STREAMFLOW =          24132.09
     GW BOUNDARY FLOW =         154901.34       GW BOUNDARY FLOW =            648.96

   INFLOWS - OUTFLOWS =         308562.33     INFLOWS - OUTFLOWS =         133275.11
             --------                                   --------

 TOTAL STORAGE CHANGE =         315634.40         STORAGE CHANGE =         133274.00
       --------------                             --------------
         LAND SURFACE =         197572.66           LAND SURFACE =         -13397.86
            SOIL ZONE =        1711107.95              SOIL ZONE =         158547.12
     UNSATURATED ZONE =        -790060.09       UNSATURATED ZONE =          -6418.31
       SATURATED ZONE =        -802986.11         SATURATED ZONE =          -5456.95

 OVERALL BUDGET ERROR =          -7072.07           BUDGET ERROR =              1.11


  PERCENT DISCREPANCY =             -0.04    PERCENT DISCREPANCY =              0.00



1
 SUMMARY VOLUMETRIC BUDGET FOR GSFLOW 
 DATE: 06 02 1981              CUMULATIVE TIME STEP:     245
 MODFLOW STRESS PERIOD      2     CURRENT TIME STEP:     245     ITERATIONS:      17

 -----------------------------------------------------------------------------------

   CUMULATIVE VOLUMES               L**3   RATES FOR THIS TIME STEP           L**3/T
   ------------------                      ------------------------

                                     IN                                         IN
                                     --                                         --
        PRECIPITATION =        1.8318D+07          PRECIPITATION =          50869.96
           STREAMFLOW =                               STREAMFLOW =                  
     GW BOUNDARY FLOW =                         GW BOUNDARY FLOW =                  


                                    OUT                                        OUT
                                    ---                                        ---
   EVAPOTRANSPIRATION =        1.2409D+07     EVAPOTRANSPIRATION =          66645.25
           STREAMFLOW =        6293570.43             STREAMFLOW =           9120.94
     GW BOUNDARY FLOW =         159439.13       GW BOUNDARY FLOW =            647.71

   INFLOWS - OUTFLOWS =        -544213.89     INFLOWS - OUTFLOWS =         -25543.95
             --------                                   --------

 TOTAL STORAGE CHANGE =        -537117.99         STORAGE CHANGE =         -25537.84
       --------------                             --------------
         LAND SURFACE =         119474.96           LAND SURFACE =          25659.25
            SOIL ZONE =        1065576.21              SOIL ZONE =         -31104.89
     UNSATURATED ZONE =        -867960.43       UNSATURATED ZONE =         -12246.61
       SATURATED ZONE =        -854208.73         SATURATED ZONE =          -7845.58

 OVERALL BUDGET ERROR =          -7095.90           BUDGET ERROR =             -6.11


  PERCENT DISCREPANCY =             -0.04    PERCENT DISCREPANCY =             -0.01



1
 SUMMARY VOLUMETRIC BUDGET FOR GSFLOW 
 DATE: 06 09 1981              CUMULATIVE TIME STEP:     252
 MODFLOW STRESS PERIOD      2     CURRENT TIME STEP:     252     ITERATIONS:      15

 -----------------------------------------------------------------------------------

   CUMULATIVE VOLUMES               L**3   RATES FOR THIS TIME STEP           L**3/T
   ------------------                      ------------------------

                                     IN                                         IN
                                     --                                         --
        PRECIPITATION =        1.8318D+07          PRECIPITATION =                  
           STREAMFLOW =                               STREAMFLOW =                  
     GW BOUNDARY FLOW =                         GW BOUNDARY FLOW =                  


                                    OUT                                        OUT
                                    ---                                        ---
   EVAPOTRANSPIRATION =        1.2966D+07     EVAPOTRANSPIRATION =          55377.05
           STREAMFLOW =        6348436.47             STREAMFLOW =           7216.58
     GW BOUNDARY FLOW =         163970.55       GW BOUNDARY FLOW =            647.13

   INFLOWS - OUTFLOWS =       -1159971.73     INFLOWS - OUTFLOWS =         -63240.76
             --------                                   --------

 TOTAL STORAGE CHANGE =       -1152864.61         STORAGE CHANGE =         -63239.49
       --------------                             --------------
         LAND SURFACE =          39669.52           LAND SURFACE =          -4382.74
            SOIL ZONE =         671470.48              SOIL ZONE =         -38354.30
     UNSATURATED ZONE =        -951169.41       UNSATURATED ZONE =         -11943.22
       SATURATED ZONE =        -912835.21         SATURATED ZONE =          -8559.23

 OVERALL BUDGET ERROR =          -7107.12           BUDGET ERROR =             -1.27


  PERCENT DISCREPANCY =             -0.04    PERCENT DISCREPANCY =             -0.00



1
 SUMMARY VOLUMETRIC BUDGET FOR GSFLOW 
 DATE: 06 16 1981              CUMULATIVE TIME STEP:     259
 MODFLOW STRESS PERIOD      2     CURRENT TIME STEP:     259     ITERATIONS:      14

 -----------------------------------------------------------------------------------

   CUMULATIVE VOLUMES               L**3   RATES FOR THIS TIME STEP           L**3/T
   ------------------                      ------------------------

                                     IN                                         IN
                                     --                                         --
        PRECIPITATION =        1.8318D+07          PRECIPITATION =                  
           STREAMFLOW =                               STREAMFLOW =                  
     GW BOUNDARY FLOW =                         GW BOUNDARY FLOW =                  


                                    OUT                                        OUT
                                    ---                                        ---
   EVAPOTRANSPIRATION =        1.3177D+07     EVAPOTRANSPIRATION =          49129.71
           STREAMFLOW =        6396134.45             STREAMFLOW =           6666.94
     GW BOUNDARY FLOW =         168499.32       GW BOUNDARY FLOW =            646.87

   INFLOWS - OUTFLOWS =       -1423220.76     INFLOWS - OUTFLOWS =         -56443.51
             --------                                   --------

 TOTAL STORAGE CHANGE =       -1416095.62         STORAGE CHANGE =         -56438.77
       --------------                             --------------
         LAND SURFACE =          25589.67           LAND SURFACE =          -3042.77
            SOIL ZONE =         571926.36              SOIL ZONE =         -31737.58
     UNSATURATED ZONE =       -1038903.00       UNSATURATED ZONE =         -12731.18
       SATURATED ZONE =        -974708.65         SATURATED ZONE =          -8927.24

 OVERALL BUDGET ERROR =          -7125.15           BUDGET ERROR =             -4.74


  PERCENT DISCREPANCY =             -0.04    PERCENT DISCREPANCY =             -0.01



1
 SUMMARY VOLUMETRIC BUDGET FOR GSFLOW 
 DATE: 06 23 1981              CUMULATIVE TIME STEP:     266
 MODFLOW STRESS PERIOD      2     CURRENT TIME STEP:     266     ITERATIONS:      18

 -----------------------------------------------------------------------------------

   CUMULATIVE VOLUMES               L**3   RATES FOR THIS TIME STEP           L**3/T
   ------------------                      ------------------------

                                     IN                                         IN
                                     --                                         --
        PRECIPITATION =        1.8318D+07          PRECIPITATION =                  
           STREAMFLOW =                               STREAMFLOW =                  
     GW BOUNDARY FLOW =                         GW BOUNDARY FLOW =                  


                                    OUT                                        OUT
                                    ---                                        ---
   EVAPOTRANSPIRATION =        1.3519D+07     EVAPOTRANSPIRATION =          40291.38
           STREAMFLOW =        6440494.04             STREAMFLOW =           6087.30
     GW BOUNDARY FLOW =         173026.49       GW BOUNDARY FLOW =            646.64

   INFLOWS - OUTFLOWS =       -1813856.98     INFLOWS - OUTFLOWS =         -47025.32
             --------                                   --------

 TOTAL STORAGE CHANGE =       -1806736.69         STORAGE CHANGE =         -47026.21
       --------------                             --------------
         LAND SURFACE =           6959.28           LAND SURFACE =          -1578.51
            SOIL ZONE =         352835.68              SOIL ZONE =         -23674.37
     UNSATURATED ZONE =       -1126804.89       UNSATURATED ZONE =         -12275.92
       SATURATED ZONE =       -1039726.76         SATURATED ZONE =          -9497.40

 OVERALL BUDGET ERROR =          -7120.29           BUDGET ERROR =              0.89


  PERCENT DISCREPANCY =             -0.04    PERCENT DISCREPANCY =              0.00



1
 SUMMARY VOLUMETRIC BUDGET FOR GSFLOW 
 DATE: 06 30 1981              CUMULATIVE TIME STEP:     273
 MODFLOW STRESS PERIOD      2     CURRENT TIME STEP:     273     ITERATIONS:      14

 -----------------------------------------------------------------------------------

   CUMULATIVE VOLUMES               L**3   RATES FOR THIS TIME STEP           L**3/T
   ------------------                      ------------------------

                                     IN                                         IN
[...]
                                    ---                                        ---
   EVAPOTRANSPIRATION =        2.8382D+08     EVAPOTRANSPIRATION =          49225.76
           STREAMFLOW =        1.8483D+08             STREAMFLOW =           7347.47
     GW BOUNDARY FLOW =        3736515.35       GW BOUNDARY FLOW =            651.06

   INFLOWS - OUTFLOWS =       -7324895.55     INFLOWS - OUTFLOWS =         -57224.28
             --------                                   --------

 TOTAL STORAGE CHANGE =       -7244407.12         STORAGE CHANGE =         -57238.17
       --------------                             --------------
         LAND SURFACE =         214963.45           LAND SURFACE =         -10645.32
            SOIL ZONE =         329881.69              SOIL ZONE =         -25163.68
     UNSATURATED ZONE =        5399616.87       UNSATURATED ZONE =         -28156.48
       SATURATED ZONE =       -1.3189D+07         SATURATED ZONE =           6727.31

 OVERALL BUDGET ERROR =         -80488.43           BUDGET ERROR =             13.88


  PERCENT DISCREPANCY =             -0.02    PERCENT DISCREPANCY =              0.02



1
 SUMMARY VOLUMETRIC BUDGET FOR GSFLOW 
 DATE: 07 30 1996              CUMULATIVE TIME STEP:    5782
 MODFLOW STRESS PERIOD      2     CURRENT TIME STEP:    5782     ITERATIONS:      15

 -----------------------------------------------------------------------------------

   CUMULATIVE VOLUMES               L**3   RATES FOR THIS TIME STEP           L**3/T
   ------------------                      ------------------------

                                     IN                                         IN
                                     --                                         --
        PRECIPITATION =        4.6511D+08          PRECIPITATION =                  
           STREAMFLOW =                               STREAMFLOW =                  
     GW BOUNDARY FLOW =                         GW BOUNDARY FLOW =                  


                                    OUT                                        OUT
                                    ---                                        ---
   EVAPOTRANSPIRATION =        2.8413D+08     EVAPOTRANSPIRATION =          32620.69
           STREAMFLOW =        1.8488D+08             STREAMFLOW =           7047.08
     GW BOUNDARY FLOW =        3741071.00       GW BOUNDARY FLOW =            650.64

   INFLOWS - OUTFLOWS =       -7638524.54     INFLOWS - OUTFLOWS =         -40318.41
             --------                                   --------

 TOTAL STORAGE CHANGE =       -7558159.99         STORAGE CHANGE =         -40337.28
       --------------                             --------------
         LAND SURFACE =         152309.38           LAND SURFACE =          -7555.65
            SOIL ZONE =         229722.24              SOIL ZONE =         -11318.77
     UNSATURATED ZONE =        5201505.59       UNSATURATED ZONE =         -28011.06
       SATURATED ZONE =       -1.3142D+07         SATURATED ZONE =           6548.20

 OVERALL BUDGET ERROR =         -80364.54           BUDGET ERROR =             18.87


  PERCENT DISCREPANCY =             -0.02    PERCENT DISCREPANCY =              0.05



1
 SUMMARY VOLUMETRIC BUDGET FOR GSFLOW 
 DATE: 08 06 1996              CUMULATIVE TIME STEP:    5789
 MODFLOW STRESS PERIOD      2     CURRENT TIME STEP:    5789     ITERATIONS:      14

 -----------------------------------------------------------------------------------

   CUMULATIVE VOLUMES               L**3   RATES FOR THIS TIME STEP           L**3/T
   ------------------                      ------------------------

                                     IN                                         IN
                                     --                                         --
        PRECIPITATION =        4.6511D+08          PRECIPITATION =                  
           STREAMFLOW =                               STREAMFLOW =                  
     GW BOUNDARY FLOW =                         GW BOUNDARY FLOW =                  


                                    OUT                                        OUT
                                    ---                                        ---
   EVAPOTRANSPIRATION =        2.8431D+08     EVAPOTRANSPIRATION =          26112.80
           STREAMFLOW =        1.8493D+08             STREAMFLOW =           6766.40
     GW BOUNDARY FLOW =        3745625.16       GW BOUNDARY FLOW =            650.54

   INFLOWS - OUTFLOWS =       -7875566.59     INFLOWS - OUTFLOWS =         -33529.74
             --------                                   --------

 TOTAL STORAGE CHANGE =       -7795325.01         STORAGE CHANGE =         -33551.30
       --------------                             --------------
         LAND SURFACE =         111776.46           LAND SURFACE =          -5017.65
            SOIL ZONE =         181998.16              SOIL ZONE =          -7395.51
     UNSATURATED ZONE =        5012516.71       UNSATURATED ZONE =         -26281.54
       SATURATED ZONE =       -1.3102D+07         SATURATED ZONE =           5143.39

 OVERALL BUDGET ERROR =         -80241.58           BUDGET ERROR =             21.56


  PERCENT DISCREPANCY =             -0.02    PERCENT DISCREPANCY =              0.06



1
 SUMMARY VOLUMETRIC BUDGET FOR GSFLOW 
 DATE: 08 13 1996              CUMULATIVE TIME STEP:    5796
 MODFLOW STRESS PERIOD      2     CURRENT TIME STEP:    5796     ITERATIONS:      15

 -----------------------------------------------------------------------------------

   CUMULATIVE VOLUMES               L**3   RATES FOR THIS TIME STEP           L**3/T
   ------------------                      ------------------------

                                     IN                                         IN
                                     --                                         --
        PRECIPITATION =        4.6531D+08          PRECIPITATION =          54454.08
           STREAMFLOW =                               STREAMFLOW =                  
     GW BOUNDARY FLOW =                         GW BOUNDARY FLOW =                  


                                    OUT                                        OUT
                                    ---                                        ---
   EVAPOTRANSPIRATION =        2.8452D+08     EVAPOTRANSPIRATION =          36083.04
           STREAMFLOW =        1.8498D+08             STREAMFLOW =           7970.84
     GW BOUNDARY FLOW =        3750178.44       GW BOUNDARY FLOW =            650.48

   INFLOWS - OUTFLOWS =       -7940423.46     INFLOWS - OUTFLOWS =           9749.72
             --------                                   --------

 TOTAL STORAGE CHANGE =       -7860275.24         STORAGE CHANGE =           9738.03
       --------------                             --------------
         LAND SURFACE =         105220.94           LAND SURFACE =          -5194.35
            SOIL ZONE =         269956.25              SOIL ZONE =          35646.72
     UNSATURATED ZONE =        4832463.94       UNSATURATED ZONE =         -25079.70
       SATURATED ZONE =       -1.3068D+07         SATURATED ZONE =           4365.36

 OVERALL BUDGET ERROR =         -80148.22           BUDGET ERROR =             11.69


  PERCENT DISCREPANCY =             -0.02    PERCENT DISCREPANCY =              0.02



1
 SUMMARY VOLUMETRIC BUDGET FOR GSFLOW 
 DATE: 08 20 1996              CUMULATIVE TIME STEP:    5803
 MODFLOW STRESS PERIOD      2     CURRENT TIME STEP:    5803     ITERATIONS:      14

 -----------------------------------------------------------------------------------

   CUMULATIVE VOLUMES               L**3   RATES FOR THIS TIME STEP           L**3/T
   ------------------                      ------------------------

                                     IN                                         IN
                                     --                                         --
        PRECIPITATION =        4.6531D+08          PRECIPITATION =                  
           STREAMFLOW =                               STREAMFLOW =                  
     GW BOUNDARY FLOW =                         GW BOUNDARY FLOW =                  


                                    OUT                                        OUT
                                    ---                                        ---
   EVAPOTRANSPIRATION =        2.8474D+08     EVAPOTRANSPIRATION =          18242.49
           STREAMFLOW =        1.8503D+08             STREAMFLOW =           6519.58
     GW BOUNDARY FLOW =        3754730.13       GW BOUNDARY FLOW =            650.06

   INFLOWS - OUTFLOWS =       -8210536.01     INFLOWS - OUTFLOWS =         -25412.13
             --------                                   --------

 TOTAL STORAGE CHANGE =       -8130481.90         STORAGE CHANGE =         -25431.09
       --------------                             --------------
         LAND SURFACE =          44442.31           LAND SURFACE =          -2851.34
            SOIL ZONE =         205246.26              SOIL ZONE =          -2015.01
     UNSATURATED ZONE =        4661563.20       UNSATURATED ZONE =         -23896.14
       SATURATED ZONE =       -1.3042D+07         SATURATED ZONE =           3331.41

 OVERALL BUDGET ERROR =         -80054.12           BUDGET ERROR =             18.96


  PERCENT DISCREPANCY =             -0.02    PERCENT DISCREPANCY =              0.07



1
 SUMMARY VOLUMETRIC BUDGET FOR GSFLOW 
 DATE: 08 27 1996              CUMULATIVE TIME STEP:    5810
 MODFLOW STRESS PERIOD      2     CURRENT TIME STEP:    5810     ITERATIONS:      13

 -----------------------------------------------------------------------------------

   CUMULATIVE VOLUMES               L**3   RATES FOR THIS TIME STEP           L**3/T
   ------------------                      ------------------------

                                     IN                                         IN
                                     --                                         --
        PRECIPITATION =        4.6531D+08          PRECIPITATION =                  
           STREAMFLOW =                               STREAMFLOW =                  
     GW BOUNDARY FLOW =                         GW BOUNDARY FLOW =                  


                                    OUT                                        OUT
                                    ---                                        ---
   EVAPOTRANSPIRATION =        2.8490D+08     EVAPOTRANSPIRATION =          16928.77
           STREAMFLOW =        1.8507D+08             STREAMFLOW =           6354.70
     GW BOUNDARY FLOW =        3759279.02       GW BOUNDARY FLOW =            649.68

   INFLOWS - OUTFLOWS =       -8421450.75     INFLOWS - OUTFLOWS =         -23933.15
             --------                                   --------

 TOTAL STORAGE CHANGE =       -8341527.61         STORAGE CHANGE =         -23942.75
       --------------                             --------------
         LAND SURFACE =          21435.24           LAND SURFACE =          -2621.72
            SOIL ZONE =         160108.50              SOIL ZONE =          -1024.67
     UNSATURATED ZONE =        4500078.69       UNSATURATED ZONE =         -22554.72
       SATURATED ZONE =       -1.3023D+07         SATURATED ZONE =           2258.36

 OVERALL BUDGET ERROR =         -79923.13           BUDGET ERROR =              9.60


  PERCENT DISCREPANCY =             -0.02    PERCENT DISCREPANCY =              0.04



1
 SUMMARY VOLUMETRIC BUDGET FOR GSFLOW 
 DATE: 09 03 1996              CUMULATIVE TIME STEP:    5817
 MODFLOW STRESS PERIOD      2     CURRENT TIME STEP:    5817     ITERATIONS:      13

 -----------------------------------------------------------------------------------

   CUMULATIVE VOLUMES               L**3   RATES FOR THIS TIME STEP           L**3/T
   ------------------                      ------------------------

                                     IN                                         IN
                                     --                                         --
        PRECIPITATION =        4.6531D+08          PRECIPITATION =                  
           STREAMFLOW =                               STREAMFLOW =                  
     GW BOUNDARY FLOW =                         GW BOUNDARY FLOW =                  


                                    OUT                                        OUT
                                    ---                                        ---
   EVAPOTRANSPIRATION =        2.8502D+08     EVAPOTRANSPIRATION =          15451.96
           STREAMFLOW =        1.8512D+08             STREAMFLOW =           6240.84
     GW BOUNDARY FLOW =        3763825.11       GW BOUNDARY FLOW =            649.26

   INFLOWS - OUTFLOWS =       -8588843.37     INFLOWS - OUTFLOWS =         -22342.06
             --------                                   --------

 TOTAL STORAGE CHANGE =       -8509070.62         STORAGE CHANGE =         -22366.06
       --------------                             --------------
         LAND SURFACE =           7240.32           LAND SURFACE =          -1278.90
            SOIL ZONE =         147945.63              SOIL ZONE =          -1016.87
     UNSATURATED ZONE =        4346329.30       UNSATURATED ZONE =         -21746.87
       SATURATED ZONE =       -1.3011D+07         SATURATED ZONE =           1676.57

 OVERALL BUDGET ERROR =         -79772.75           BUDGET ERROR =             24.01


  PERCENT DISCREPANCY =             -0.02    PERCENT DISCREPANCY =              0.11



1
 SUMMARY VOLUMETRIC BUDGET FOR GSFLOW 
 DATE: 09 10 1996              CUMULATIVE TIME STEP:    5824
 MODFLOW STRESS PERIOD      2     CURRENT TIME STEP:    5824     ITERATIONS:      13

 -----------------------------------------------------------------------------------

   CUMULATIVE VOLUMES               L**3   RATES FOR THIS TIME STEP           L**3/T
   ------------------                      ------------------------

                                     IN                                         IN
                                     --                                         --
        PRECIPITATION =        4.6531D+08          PRECIPITATION =                  
           STREAMFLOW =                               STREAMFLOW =                  
     GW BOUNDARY FLOW =                         GW BOUNDARY FLOW =                  


                                    OUT                                        OUT
                                    ---                                        ---
   EVAPOTRANSPIRATION =        2.8511D+08     EVAPOTRANSPIRATION =          13776.88
           STREAMFLOW =        1.8516D+08             STREAMFLOW =           6133.05
     GW BOUNDARY FLOW =        3768368.39       GW BOUNDARY FLOW =            648.87

   INFLOWS - OUTFLOWS =       -8726029.52     INFLOWS - OUTFLOWS =         -20558.80
             --------                                   --------

 TOTAL STORAGE CHANGE =       -8646438.93         STORAGE CHANGE =         -20583.76
       --------------                             --------------
         LAND SURFACE =           2510.71           LAND SURFACE =           -704.62
            SOIL ZONE =         154893.25              SOIL ZONE =            -35.44
     UNSATURATED ZONE =        4197055.63       UNSATURATED ZONE =         -20933.31
       SATURATED ZONE =       -1.3001D+07         SATURATED ZONE =           1089.62

 OVERALL BUDGET ERROR =         -79590.58           BUDGET ERROR =             24.95


  PERCENT DISCREPANCY =             -0.02    PERCENT DISCREPANCY =              0.12



1
 SUMMARY VOLUMETRIC BUDGET FOR GSFLOW 
 DATE: 09 17 1996              CUMULATIVE TIME STEP:    5831
 MODFLOW STRESS PERIOD      2     CURRENT TIME STEP:    5831     ITERATIONS:      12

 -----------------------------------------------------------------------------------

   CUMULATIVE VOLUMES               L**3   RATES FOR THIS TIME STEP           L**3/T
   ------------------                      ------------------------

                                     IN                                         IN
                                     --                                         --
        PRECIPITATION =        4.6637D+08          PRECIPITATION =                  
           STREAMFLOW =                               STREAMFLOW =                  
     GW BOUNDARY FLOW =                         GW BOUNDARY FLOW =                  


                                    OUT                                        OUT
                                    ---                                        ---
   EVAPOTRANSPIRATION =        2.8529D+08     EVAPOTRANSPIRATION =          52774.70
           STREAMFLOW =        1.8523D+08             STREAMFLOW =          10299.63
     GW BOUNDARY FLOW =        3772910.87       GW BOUNDARY FLOW =            649.26

   INFLOWS - OUTFLOWS =       -7917979.04     INFLOWS - OUTFLOWS =         -63723.60
             --------                                   --------

 TOTAL STORAGE CHANGE =       -7838575.01         STORAGE CHANGE =         -63741.52
       --------------                             --------------
         LAND SURFACE =            882.14           LAND SURFACE =         -33826.70
            SOIL ZONE =        1100388.51              SOIL ZONE =         -10295.14
     UNSATURATED ZONE =        4052575.89       UNSATURATED ZONE =         -20282.83
       SATURATED ZONE =       -1.2992D+07         SATURATED ZONE =            663.15

 OVERALL BUDGET ERROR =         -79404.04           BUDGET ERROR =             17.93


  PERCENT DISCREPANCY =             -0.02    PERCENT DISCREPANCY =              0.03



1
 SUMMARY VOLUMETRIC BUDGET FOR GSFLOW 
 DATE: 09 24 1996              CUMULATIVE TIME STEP:    5838
 MODFLOW STRESS PERIOD      2     CURRENT TIME STEP:    5838     ITERATIONS:      12

 -----------------------------------------------------------------------------------

   CUMULATIVE VOLUMES               L**3   RATES FOR THIS TIME STEP           L**3/T
   ------------------                      ------------------------

                                     IN                                         IN
                                     --                                         --
        PRECIPITATION =        4.6637D+08          PRECIPITATION =                  
           STREAMFLOW =                               STREAMFLOW =                  
     GW BOUNDARY FLOW =                         GW BOUNDARY FLOW =                  


                                    OUT                                        OUT
                                    ---                                        ---
   EVAPOTRANSPIRATION =        2.8575D+08     EVAPOTRANSPIRATION =          54621.78
           STREAMFLOW =        1.8528D+08             STREAMFLOW =           6710.14
     GW BOUNDARY FLOW =        3777451.77       GW BOUNDARY FLOW =            648.36

   INFLOWS - OUTFLOWS =       -8438658.66     INFLOWS - OUTFLOWS =         -61980.28
             --------                                   --------

 TOTAL STORAGE CHANGE =       -8359450.09         STORAGE CHANGE =         -62003.00
       --------------                             --------------
         LAND SURFACE =                             LAND SURFACE =                  
            SOIL ZONE =         717054.60              SOIL ZONE =         -42567.01
     UNSATURATED ZONE =        3914800.73       UNSATURATED ZONE =         -19307.86
       SATURATED ZONE =       -1.2991D+07         SATURATED ZONE =           -128.13

 OVERALL BUDGET ERROR =         -79208.58           BUDGET ERROR =             22.72


  PERCENT DISCREPANCY =             -0.02    PERCENT DISCREPANCY =              0.04



