1
 SUMMARY VOLUMETRIC BUDGET FOR GSFLOW 
 DATE: 10 07 1980              CUMULATIVE TIME STEP:       7
 MODFLOW STRESS PERIOD      2     CURRENT TIME STEP:       7     ITERATIONS:       6

 -----------------------------------------------------------------------------------

   CUMULATIVE VOLUMES               L**3   RATES FOR THIS TIME STEP           L**3/T
   ------------------                      ------------------------

                                     IN                                         IN
                                     --                                         --
        PRECIPITATION =                            PRECIPITATION =                  
           STREAMFLOW =                               STREAMFLOW =                  
     GW BOUNDARY FLOW =                         GW BOUNDARY FLOW =                  


                                    OUT                                        OUT
                                    ---                                        ---
   EVAPOTRANSPIRATION =          56645.65     EVAPOTRANSPIRATION =           9328.39
           STREAMFLOW =          42957.50             STREAMFLOW =           6065.76
     GW BOUNDARY FLOW =           4541.44       GW BOUNDARY FLOW =            648.70

   INFLOWS - OUTFLOWS =        -104144.59     INFLOWS - OUTFLOWS =         -16042.85
             --------                                   --------

 TOTAL STORAGE CHANGE =        -103748.98         STORAGE CHANGE =         -15982.26
       --------------                             --------------
         LAND SURFACE =                             LAND SURFACE =                  
            SOIL ZONE =          53870.33              SOIL ZONE =           6367.92
     UNSATURATED ZONE =        -144779.04       UNSATURATED ZONE =         -20361.32
       SATURATED ZONE =         -12840.27         SATURATED ZONE =          -1988.86

 OVERALL BUDGET ERROR =           -395.61           BUDGET ERROR =            -60.59


  PERCENT DISCREPANCY =             -0.38    PERCENT DISCREPANCY =             -0.38



1
 SUMMARY VOLUMETRIC BUDGET FOR GSFLOW 
 DATE: 10 14 1980              CUMULATIVE TIME STEP:      14
 MODFLOW STRESS PERIOD      2     CURRENT TIME STEP:      14     ITERATIONS:       6

 -----------------------------------------------------------------------------------

   CUMULATIVE VOLUMES               L**3   RATES FOR THIS TIME STEP           L**3/T
   ------------------                      ------------------------

                                     IN                                         IN
                                     --                                         --
        PRECIPITATION =         650779.83          PRECIPITATION =         164754.40
           STREAMFLOW =                               STREAMFLOW =                  
     GW BOUNDARY FLOW =                         GW BOUNDARY FLOW =                  


                                    OUT                                        OUT
                                    ---                                        ---
   EVAPOTRANSPIRATION =         149772.38     EVAPOTRANSPIRATION =          10634.04
           STREAMFLOW =          94400.61             STREAMFLOW =           7692.02
     GW BOUNDARY FLOW =           9082.95       GW BOUNDARY FLOW =            648.93

   INFLOWS - OUTFLOWS =         397523.90     INFLOWS - OUTFLOWS =         145779.40
             --------                                   --------

 TOTAL STORAGE CHANGE =         398361.56         STORAGE CHANGE =         145840.77
       --------------                             --------------
         LAND SURFACE =         183750.31           LAND SURFACE =         130549.56
            SOIL ZONE =         526684.53              SOIL ZONE =          37323.57
     UNSATURATED ZONE =        -284495.96       UNSATURATED ZONE =         -19624.72
       SATURATED ZONE =         -27577.32         SATURATED ZONE =          -2407.64

 OVERALL BUDGET ERROR =           -837.66           BUDGET ERROR =            -61.38


  PERCENT DISCREPANCY =             -0.13    PERCENT DISCREPANCY =             -0.04



1
 SUMMARY VOLUMETRIC BUDGET FOR GSFLOW 
 DATE: 10 21 1980              CUMULATIVE TIME STEP:      21
 MODFLOW STRESS PERIOD      2     CURRENT TIME STEP:      21     ITERATIONS:       6

 -----------------------------------------------------------------------------------

   CUMULATIVE VOLUMES               L**3   RATES FOR THIS TIME STEP           L**3/T
   ------------------                      ------------------------

                                     IN                                         IN
                                     --                                         --
        PRECIPITATION =         733157.03          PRECIPITATION =                  
           STREAMFLOW =                               STREAMFLOW =                  
     GW BOUNDARY FLOW =                         GW BOUNDARY FLOW =                  


                                    OUT                                        OUT
                                    ---                                        ---
   EVAPOTRANSPIRATION =         365535.48     EVAPOTRANSPIRATION =          29912.87
           STREAMFLOW =         145431.48             STREAMFLOW =           6880.60
     GW BOUNDARY FLOW =          13624.67       GW BOUNDARY FLOW =            648.73

   INFLOWS - OUTFLOWS =         208565.41     INFLOWS - OUTFLOWS =         -37442.21
             --------                                   --------

 TOTAL STORAGE CHANGE =         209851.76         STORAGE CHANGE =         -37372.93
       --------------                             --------------
         LAND SURFACE =                             LAND SURFACE =                  
            SOIL ZONE =         675060.64              SOIL ZONE =         -15518.36
     UNSATURATED ZONE =        -418656.49       UNSATURATED ZONE =         -18827.11
       SATURATED ZONE =         -46552.38         SATURATED ZONE =          -3027.46

 OVERALL BUDGET ERROR =          -1286.36           BUDGET ERROR =            -69.27


  PERCENT DISCREPANCY =             -0.18    PERCENT DISCREPANCY =             -0.19



1
 SUMMARY VOLUMETRIC BUDGET FOR GSFLOW 
 DATE: 10 28 1980              CUMULATIVE TIME STEP:      28
 MODFLOW STRESS PERIOD      2     CURRENT TIME STEP:      28     ITERATIONS:       6

 -----------------------------------------------------------------------------------

   CUMULATIVE VOLUMES               L**3   RATES FOR THIS TIME STEP           L**3/T
   ------------------                      ------------------------

                                     IN                                         IN
                                     --                                         --
        PRECIPITATION =        1070903.53          PRECIPITATION =                  
           STREAMFLOW =                               STREAMFLOW =                  
     GW BOUNDARY FLOW =                         GW BOUNDARY FLOW =                  


                                    OUT                                        OUT
                                    ---                                        ---
   EVAPOTRANSPIRATION =         541797.07     EVAPOTRANSPIRATION =          24800.27
           STREAMFLOW =         199722.37             STREAMFLOW =           7876.16
     GW BOUNDARY FLOW =          18165.89       GW BOUNDARY FLOW =            648.79

   INFLOWS - OUTFLOWS =         311218.19     INFLOWS - OUTFLOWS =         -33325.22
             --------                                   --------

 TOTAL STORAGE CHANGE =         313011.18         STORAGE CHANGE =         -33250.77
       --------------                             --------------
         LAND SURFACE =          20571.53           LAND SURFACE =         -29890.85
            SOIL ZONE =         908876.86              SOIL ZONE =          18133.13
     UNSATURATED ZONE =        -547246.27       UNSATURATED ZONE =         -17992.49
       SATURATED ZONE =         -69190.94         SATURATED ZONE =          -3500.55

 OVERALL BUDGET ERROR =          -1792.99           BUDGET ERROR =            -74.46


  PERCENT DISCREPANCY =             -0.17    PERCENT DISCREPANCY =             -0.22



1
 SUMMARY VOLUMETRIC BUDGET FOR GSFLOW 
 DATE: 11 04 1980              CUMULATIVE TIME STEP:      35
 MODFLOW STRESS PERIOD      2     CURRENT TIME STEP:      35     ITERATIONS:       6

 -----------------------------------------------------------------------------------

   CUMULATIVE VOLUMES               L**3   RATES FOR THIS TIME STEP           L**3/T
   ------------------                      ------------------------

                                     IN                                         IN
                                     --                                         --
        PRECIPITATION =        1070903.53          PRECIPITATION =                  
           STREAMFLOW =                               STREAMFLOW =                  
     GW BOUNDARY FLOW =                         GW BOUNDARY FLOW =                  


                                    OUT                                        OUT
                                    ---                                        ---
   EVAPOTRANSPIRATION =         831428.62     EVAPOTRANSPIRATION =          39962.28
           STREAMFLOW =         251801.82             STREAMFLOW =           7032.46
     GW BOUNDARY FLOW =          22706.82       GW BOUNDARY FLOW =            648.64

   INFLOWS - OUTFLOWS =         -35033.73     INFLOWS - OUTFLOWS =         -47643.39
             --------                                   --------

 TOTAL STORAGE CHANGE =         -32685.17         STORAGE CHANGE =         -47561.49
       --------------                             --------------
         LAND SURFACE =                             LAND SURFACE =                  
            SOIL ZONE =         734331.03              SOIL ZONE =         -26056.01
     UNSATURATED ZONE =        -670729.36       UNSATURATED ZONE =         -17376.22
       SATURATED ZONE =         -96286.85         SATURATED ZONE =          -4129.27

 OVERALL BUDGET ERROR =          -2348.56           BUDGET ERROR =            -81.89


  PERCENT DISCREPANCY =             -0.21    PERCENT DISCREPANCY =             -0.17



1
 SUMMARY VOLUMETRIC BUDGET FOR GSFLOW 
 DATE: 11 11 1980              CUMULATIVE TIME STEP:      42
 MODFLOW STRESS PERIOD      2     CURRENT TIME STEP:      42     ITERATIONS:       7

 -----------------------------------------------------------------------------------

   CUMULATIVE VOLUMES               L**3   RATES FOR THIS TIME STEP           L**3/T
   ------------------                      ------------------------

                                     IN                                         IN
                                     --                                         --
        PRECIPITATION =        1573762.54          PRECIPITATION =         255182.19
           STREAMFLOW =                               STREAMFLOW =                  
     GW BOUNDARY FLOW =                         GW BOUNDARY FLOW =                  


                                    OUT                                        OUT
                                    ---                                        ---
   EVAPOTRANSPIRATION =        1028107.41     EVAPOTRANSPIRATION =          15849.04
           STREAMFLOW =         308214.04             STREAMFLOW =          10769.56
     GW BOUNDARY FLOW =          27247.60       GW BOUNDARY FLOW =            648.85

   INFLOWS - OUTFLOWS =         210193.50     INFLOWS - OUTFLOWS =         227914.74
             --------                                   --------

 TOTAL STORAGE CHANGE =         213061.36         STORAGE CHANGE =         227971.74
       --------------                             --------------
         LAND SURFACE =          76960.22           LAND SURFACE =          76747.38
            SOIL ZONE =        1051489.85              SOIL ZONE =         171848.10
     UNSATURATED ZONE =        -789236.12       UNSATURATED ZONE =         -16532.83
       SATURATED ZONE =        -126152.59         SATURATED ZONE =          -4090.91

 OVERALL BUDGET ERROR =          -2867.86           BUDGET ERROR =            -57.01


  PERCENT DISCREPANCY =             -0.18    PERCENT DISCREPANCY =             -0.02



1
 SUMMARY VOLUMETRIC BUDGET FOR GSFLOW 
 DATE: 11 18 1980              CUMULATIVE TIME STEP:      49
 MODFLOW STRESS PERIOD      2     CURRENT TIME STEP:      49     ITERATIONS:       6

 -----------------------------------------------------------------------------------

   CUMULATIVE VOLUMES               L**3   RATES FOR THIS TIME STEP           L**3/T
   ------------------                      ------------------------

                                     IN                                         IN
                                     --                                         --
        PRECIPITATION =        1573762.54          PRECIPITATION =                  
           STREAMFLOW =                               STREAMFLOW =                  
     GW BOUNDARY FLOW =                         GW BOUNDARY FLOW =                  


                                    OUT                                        OUT
                                    ---                                        ---
   EVAPOTRANSPIRATION =        1117385.57     EVAPOTRANSPIRATION =          15089.24
           STREAMFLOW =         370645.47             STREAMFLOW =           9246.29
     GW BOUNDARY FLOW =          31789.44       GW BOUNDARY FLOW =            648.85

   INFLOWS - OUTFLOWS =          53942.06     INFLOWS - OUTFLOWS =         -24984.38
             --------                                   --------

 TOTAL STORAGE CHANGE =          57412.19         STORAGE CHANGE =         -24893.40
       --------------                             --------------
         LAND SURFACE =           8139.47           LAND SURFACE =          -4965.50
            SOIL ZONE =        1111214.39              SOIL ZONE =            922.04
     UNSATURATED ZONE =        -903170.44       UNSATURATED ZONE =         -16043.26
       SATURATED ZONE =        -158771.24         SATURATED ZONE =          -4806.67

 OVERALL BUDGET ERROR =          -3470.13           BUDGET ERROR =            -90.98


  PERCENT DISCREPANCY =             -0.22    PERCENT DISCREPANCY =             -0.36



1
 SUMMARY VOLUMETRIC BUDGET FOR GSFLOW 
 DATE: 11 25 1980              CUMULATIVE TIME STEP:      56
 MODFLOW STRESS PERIOD      2     CURRENT TIME STEP:      56     ITERATIONS:       7

 -----------------------------------------------------------------------------------

   CUMULATIVE VOLUMES               L**3   RATES FOR THIS TIME STEP           L**3/T
   ------------------                      ------------------------

                                     IN                                         IN
                                     --                                         --
        PRECIPITATION =        1648816.13          PRECIPITATION =                  
           STREAMFLOW =                               STREAMFLOW =                  
     GW BOUNDARY FLOW =                         GW BOUNDARY FLOW =                  


                                    OUT                                        OUT
                                    ---                                        ---
   EVAPOTRANSPIRATION =        1195010.05     EVAPOTRANSPIRATION =           9313.74
           STREAMFLOW =         437369.57             STREAMFLOW =           9887.29
     GW BOUNDARY FLOW =          36331.65       GW BOUNDARY FLOW =            648.92

   INFLOWS - OUTFLOWS =         -19895.14     INFLOWS - OUTFLOWS =         -19849.95
             --------                                   --------

 TOTAL STORAGE CHANGE =         -15807.47         STORAGE CHANGE =         -19784.77
       --------------                             --------------
         LAND SURFACE =          54136.41           LAND SURFACE =          -9258.02
            SOIL ZONE =        1137613.30              SOIL ZONE =          10211.14
     UNSATURATED ZONE =       -1012942.28       UNSATURATED ZONE =         -15418.45
       SATURATED ZONE =        -194614.90         SATURATED ZONE =          -5319.44

 OVERALL BUDGET ERROR =          -4087.67           BUDGET ERROR =            -65.18


  PERCENT DISCREPANCY =             -0.25    PERCENT DISCREPANCY =             -0.33



1
 SUMMARY VOLUMETRIC BUDGET FOR GSFLOW 
 DATE: 12 02 1980              CUMULATIVE TIME STEP:      63
 MODFLOW STRESS PERIOD      2     CURRENT TIME STEP:      63     ITERATIONS:       7

 -----------------------------------------------------------------------------------

   CUMULATIVE VOLUMES               L**3   RATES FOR THIS TIME STEP           L**3/T
   ------------------                      ------------------------

                                     IN                                         IN
                                     --                                         --
        PRECIPITATION =        2076621.55          PRECIPITATION =                  
           STREAMFLOW =                               STREAMFLOW =                  
     GW BOUNDARY FLOW =                         GW BOUNDARY FLOW =                  


                                    OUT                                        OUT
                                    ---                                        ---
   EVAPOTRANSPIRATION =        1382496.26     EVAPOTRANSPIRATION =          34142.11
           STREAMFLOW =         521567.15             STREAMFLOW =          15160.14
     GW BOUNDARY FLOW =          40875.51       GW BOUNDARY FLOW =            649.43

   INFLOWS - OUTFLOWS =         131682.63     INFLOWS - OUTFLOWS =         -49951.67
             --------                                   --------

 TOTAL STORAGE CHANGE =         136319.70         STORAGE CHANGE =         -49894.93
       --------------                             --------------
         LAND SURFACE =         157031.20           LAND SURFACE =         -76789.76
            SOIL ZONE =        1324259.64              SOIL ZONE =          44377.78
     UNSATURATED ZONE =       -1114531.96       UNSATURATED ZONE =         -12899.44
       SATURATED ZONE =        -230439.19         SATURATED ZONE =          -4583.50

 OVERALL BUDGET ERROR =          -4637.06           BUDGET ERROR =            -56.74


  PERCENT DISCREPANCY =             -0.22    PERCENT DISCREPANCY =             -0.11



1
 SUMMARY VOLUMETRIC BUDGET FOR GSFLOW 
 DATE: 12 09 1980              CUMULATIVE TIME STEP:      70
 MODFLOW STRESS PERIOD      2     CURRENT TIME STEP:      70     ITERATIONS:       7

 -----------------------------------------------------------------------------------

   CUMULATIVE VOLUMES               L**3   RATES FOR THIS TIME STEP           L**3/T
   ------------------                      ------------------------

                                     IN                                         IN
                                     --                                         --
        PRECIPITATION =        4284363.63          PRECIPITATION =                  
           STREAMFLOW =                               STREAMFLOW =                  
     GW BOUNDARY FLOW =                         GW BOUNDARY FLOW =                  


                                    OUT                                        OUT
                                    ---                                        ---
   EVAPOTRANSPIRATION =        1408135.04     EVAPOTRANSPIRATION =           3258.35
           STREAMFLOW =         620290.90             STREAMFLOW =          14409.54
     GW BOUNDARY FLOW =          45422.30       GW BOUNDARY FLOW =            649.63

   INFLOWS - OUTFLOWS =        2210515.39     INFLOWS - OUTFLOWS =         -18317.53
             --------                                   --------

 TOTAL STORAGE CHANGE =        2215644.06         STORAGE CHANGE =         -18250.86
       --------------                             --------------
         LAND SURFACE =        2337504.39           LAND SURFACE =          -3258.35
            SOIL ZONE =        1360341.14              SOIL ZONE =           5206.01
     UNSATURATED ZONE =       -1212719.39       UNSATURATED ZONE =         -14222.96
       SATURATED ZONE =        -269482.07         SATURATED ZONE =          -5975.55

 OVERALL BUDGET ERROR =          -5128.67           BUDGET ERROR =            -66.67


  PERCENT DISCREPANCY =             -0.12    PERCENT DISCREPANCY =             -0.36



1
 SUMMARY VOLUMETRIC BUDGET FOR GSFLOW 
 DATE: 12 16 1980              CUMULATIVE TIME STEP:      77
 MODFLOW STRESS PERIOD      2     CURRENT TIME STEP:      77     ITERATIONS:       7

 -----------------------------------------------------------------------------------

   CUMULATIVE VOLUMES               L**3   RATES FOR THIS TIME STEP           L**3/T
   ------------------                      ------------------------

                                     IN                                         IN
                                     --                                         --
        PRECIPITATION =        4284363.63          PRECIPITATION =                  
           STREAMFLOW =                               STREAMFLOW =                  
     GW BOUNDARY FLOW =                         GW BOUNDARY FLOW =                  


                                    OUT                                        OUT
                                    ---                                        ---
   EVAPOTRANSPIRATION =        1552766.58     EVAPOTRANSPIRATION =          34482.61
           STREAMFLOW =         739901.02             STREAMFLOW =          24850.88
     GW BOUNDARY FLOW =          49970.84       GW BOUNDARY FLOW =            650.24

   INFLOWS - OUTFLOWS =        1941725.19     INFLOWS - OUTFLOWS =         -59983.72
             --------                                   --------

 TOTAL STORAGE CHANGE =        1947301.70         STORAGE CHANGE =         -59919.18
       --------------                             --------------
         LAND SURFACE =        2017009.25           LAND SURFACE =        -133032.47
            SOIL ZONE =        1542718.85              SOIL ZONE =          86600.50
     UNSATURATED ZONE =       -1302574.09       UNSATURATED ZONE =          -9045.63
       SATURATED ZONE =        -309852.31         SATURATED ZONE =          -4441.59

 OVERALL BUDGET ERROR =          -5576.51           BUDGET ERROR =            -64.53


  PERCENT DISCREPANCY =             -0.13    PERCENT DISCREPANCY =             -0.11



1
 SUMMARY VOLUMETRIC BUDGET FOR GSFLOW 
 DATE: 12 23 1980              CUMULATIVE TIME STEP:      84
 MODFLOW STRESS PERIOD      2     CURRENT TIME STEP:      84     ITERATIONS:       9

 -----------------------------------------------------------------------------------

   CUMULATIVE VOLUMES               L**3   RATES FOR THIS TIME STEP           L**3/T
   ------------------                      ------------------------

                                     IN                                         IN
                                     --                                         --
        PRECIPITATION =        4516757.54          PRECIPITATION =                  
           STREAMFLOW =                               STREAMFLOW =                  
     GW BOUNDARY FLOW =                         GW BOUNDARY FLOW =                  


                                    OUT                                        OUT
                                    ---                                        ---
   EVAPOTRANSPIRATION =        1761004.40     EVAPOTRANSPIRATION =          35848.50
           STREAMFLOW =         969596.10             STREAMFLOW =          30863.92
     GW BOUNDARY FLOW =          54531.36       GW BOUNDARY FLOW =            651.97

   INFLOWS - OUTFLOWS =        1731625.68     INFLOWS - OUTFLOWS =         -67364.39
             --------                                   --------

 TOTAL STORAGE CHANGE =        1737465.26         STORAGE CHANGE =         -67335.28
       --------------                             --------------
         LAND SURFACE =        1391476.45           LAND SURFACE =         -50626.27
            SOIL ZONE =        2025749.83              SOIL ZONE =          -6750.24
     UNSATURATED ZONE =       -1342219.27       UNSATURATED ZONE =          -5460.06
       SATURATED ZONE =        -337541.74         SATURATED ZONE =          -4498.71

 OVERALL BUDGET ERROR =          -5839.58           BUDGET ERROR =            -29.11


  PERCENT DISCREPANCY =             -0.13    PERCENT DISCREPANCY =             -0.04



1
 SUMMARY VOLUMETRIC BUDGET FOR GSFLOW 
 DATE: 12 30 1980              CUMULATIVE TIME STEP:      91
 MODFLOW STRESS PERIOD      2     CURRENT TIME STEP:      91     ITERATIONS:      10

 -----------------------------------------------------------------------------------

   CUMULATIVE VOLUMES               L**3   RATES FOR THIS TIME STEP           L**3/T
   ------------------                      ------------------------

                                     IN                                         IN
                                     --                                         --
        PRECIPITATION =        4516757.54          PRECIPITATION =                  
           STREAMFLOW =                               STREAMFLOW =                  
     GW BOUNDARY FLOW =                         GW BOUNDARY FLOW =                  


                                    OUT                                        OUT
                                    ---                                        ---
   EVAPOTRANSPIRATION =        2128726.65     EVAPOTRANSPIRATION =          47015.27
           STREAMFLOW =        1219758.37             STREAMFLOW =          27827.96
     GW BOUNDARY FLOW =          59098.50       GW BOUNDARY FLOW =            652.43

   INFLOWS - OUTFLOWS =        1109174.01     INFLOWS - OUTFLOWS =         -75495.66
             --------                                   --------

 TOTAL STORAGE CHANGE =        1115139.58         STORAGE CHANGE =         -75482.04
       --------------                             --------------
         LAND SURFACE =         579625.21           LAND SURFACE =         -42433.18
            SOIL ZONE =        2244943.72              SOIL ZONE =         -24948.09
     UNSATURATED ZONE =       -1347549.66       UNSATURATED ZONE =          -4019.10
       SATURATED ZONE =        -361879.69         SATURATED ZONE =          -4081.67

 OVERALL BUDGET ERROR =          -5965.57           BUDGET ERROR =            -13.62


  PERCENT DISCREPANCY =             -0.13    PERCENT DISCREPANCY =             -0.02



1
 SUMMARY VOLUMETRIC BUDGET FOR GSFLOW 
 DATE: 01 06 1981              CUMULATIVE TIME STEP:      98
 MODFLOW STRESS PERIOD      2     CURRENT TIME STEP:      98     ITERATIONS:       8

 -----------------------------------------------------------------------------------

   CUMULATIVE VOLUMES               L**3   RATES FOR THIS TIME STEP           L**3/T
   ------------------                      ------------------------

                                     IN                                         IN
                                     --                                         --
        PRECIPITATION =        5004445.43          PRECIPITATION =                  
           STREAMFLOW =                               STREAMFLOW =                  
     GW BOUNDARY FLOW =                         GW BOUNDARY FLOW =                  


                                    OUT                                        OUT
                                    ---                                        ---
   EVAPOTRANSPIRATION =        2346413.82     EVAPOTRANSPIRATION =          18975.60
           STREAMFLOW =        1369354.34             STREAMFLOW =          20175.23
     GW BOUNDARY FLOW =          63659.91       GW BOUNDARY FLOW =            651.16

   INFLOWS - OUTFLOWS =        1225017.37     INFLOWS - OUTFLOWS =         -39802.00
             --------                                   --------

 TOTAL STORAGE CHANGE =        1231143.61         STORAGE CHANGE =         -39764.94
       --------------                             --------------
         LAND SURFACE =         840075.39           LAND SURFACE =         -25549.72
            SOIL ZONE =        2209766.29              SOIL ZONE =           3402.25
     UNSATURATED ZONE =       -1418447.09       UNSATURATED ZONE =         -11718.64
       SATURATED ZONE =        -400250.99         SATURATED ZONE =          -5898.83

 OVERALL BUDGET ERROR =          -6126.25           BUDGET ERROR =            -37.06


  PERCENT DISCREPANCY =             -0.12    PERCENT DISCREPANCY =             -0.09



1
 SUMMARY VOLUMETRIC BUDGET FOR GSFLOW 
 DATE: 01 13 1981              CUMULATIVE TIME STEP:     105
 MODFLOW STRESS PERIOD      2     CURRENT TIME STEP:     105     ITERATIONS:       8

 -----------------------------------------------------------------------------------

   CUMULATIVE VOLUMES               L**3   RATES FOR THIS TIME STEP           L**3/T
   ------------------                      ------------------------

                                     IN                                         IN
                                     --                                         --
        PRECIPITATION =        5004445.43          PRECIPITATION =                  
           STREAMFLOW =                               STREAMFLOW =                  
     GW BOUNDARY FLOW =                         GW BOUNDARY FLOW =                  


                                    OUT                                        OUT
                                    ---                                        ---
   EVAPOTRANSPIRATION =        2548159.93     EVAPOTRANSPIRATION =          41907.78
           STREAMFLOW =        1514581.61             STREAMFLOW =          20288.31
     GW BOUNDARY FLOW =          68216.71       GW BOUNDARY FLOW =            650.84

   INFLOWS - OUTFLOWS =         873487.18     INFLOWS - OUTFLOWS =         -62846.93
             --------                                   --------

 TOTAL STORAGE CHANGE =         879922.91         STORAGE CHANGE =         -62813.99
       --------------                             --------------
         LAND SURFACE =         624161.64           LAND SURFACE =         -38673.92
            SOIL ZONE =        2189353.61              SOIL ZONE =          -8313.19
     UNSATURATED ZONE =       -1489072.60       UNSATURATED ZONE =          -9260.15
       SATURATED ZONE =        -444519.75         SATURATED ZONE =          -6566.73

 OVERALL BUDGET ERROR =          -6435.73           BUDGET ERROR =            -32.94


  PERCENT DISCREPANCY =             -0.13    PERCENT DISCREPANCY =             -0.05



1
 SUMMARY VOLUMETRIC BUDGET FOR GSFLOW 
 DATE: 01 20 1981              CUMULATIVE TIME STEP:     112
 MODFLOW STRESS PERIOD      2     CURRENT TIME STEP:     112     ITERATIONS:       8

 -----------------------------------------------------------------------------------

   CUMULATIVE VOLUMES               L**3   RATES FOR THIS TIME STEP           L**3/T
   ------------------                      ------------------------

                                     IN                                         IN
                                     --                                         --
        PRECIPITATION =        5170466.84          PRECIPITATION =          41505.35
           STREAMFLOW =                               STREAMFLOW =                  
     GW BOUNDARY FLOW =                         GW BOUNDARY FLOW =                  


                                    OUT                                        OUT
                                    ---                                        ---
   EVAPOTRANSPIRATION =        2813072.30     EVAPOTRANSPIRATION =          30808.36
           STREAMFLOW =        1655847.34             STREAMFLOW =          19992.91
     GW BOUNDARY FLOW =          72771.55       GW BOUNDARY FLOW =            650.64

   INFLOWS - OUTFLOWS =         628775.65     INFLOWS - OUTFLOWS =          -9946.55
             --------                                   --------

 TOTAL STORAGE CHANGE =         635522.34         STORAGE CHANGE =          -9918.18
       --------------                             --------------
         LAND SURFACE =         464145.88           LAND SURFACE =           8501.89
            SOIL ZONE =        2184736.83              SOIL ZONE =          -8927.62
     UNSATURATED ZONE =       -1524086.12       UNSATURATED ZONE =          -2786.18
       SATURATED ZONE =        -489274.26         SATURATED ZONE =          -6706.27

 OVERALL BUDGET ERROR =          -6746.68           BUDGET ERROR =            -28.37


  PERCENT DISCREPANCY =             -0.13    PERCENT DISCREPANCY =             -0.06



1
 SUMMARY VOLUMETRIC BUDGET FOR GSFLOW 
 DATE: 01 27 1981              CUMULATIVE TIME STEP:     119
 MODFLOW STRESS PERIOD      2     CURRENT TIME STEP:     119     ITERATIONS:       8

 -----------------------------------------------------------------------------------

   CUMULATIVE VOLUMES               L**3   RATES FOR THIS TIME STEP           L**3/T
   ------------------                      ------------------------

                                     IN                                         IN
                                     --                                         --
        PRECIPITATION =        8646540.08          PRECIPITATION =        2936503.63
           STREAMFLOW =                               STREAMFLOW =                  
     GW BOUNDARY FLOW =                         GW BOUNDARY FLOW =                  


                                    OUT                                        OUT
                                    ---                                        ---
   EVAPOTRANSPIRATION =        3036026.63     EVAPOTRANSPIRATION =          12639.57
           STREAMFLOW =        1799456.67             STREAMFLOW =          18565.55
     GW BOUNDARY FLOW =          77325.75       GW BOUNDARY FLOW =            650.42

   INFLOWS - OUTFLOWS =        3733731.03     INFLOWS - OUTFLOWS =        2904648.09
             --------                                   --------

 TOTAL STORAGE CHANGE =        3740627.17         STORAGE CHANGE =        2904672.71
       --------------                             --------------
         LAND SURFACE =        3592460.11           LAND SURFACE =        2923864.12
            SOIL ZONE =        2205294.71              SOIL ZONE =          -6091.42
     UNSATURATED ZONE =       -1521716.51       UNSATURATED ZONE =          -6117.96
       SATURATED ZONE =        -535411.14         SATURATED ZONE =          -6982.02

 OVERALL BUDGET ERROR =          -6896.14           BUDGET ERROR =            -24.63


  PERCENT DISCREPANCY =             -0.08    PERCENT DISCREPANCY =             -0.00



1
 SUMMARY VOLUMETRIC BUDGET FOR GSFLOW 
 DATE: 02 03 1981              CUMULATIVE TIME STEP:     126
 MODFLOW STRESS PERIOD      2     CURRENT TIME STEP:     126     ITERATIONS:       8

 -----------------------------------------------------------------------------------

   CUMULATIVE VOLUMES               L**3   RATES FOR THIS TIME STEP           L**3/T
   ------------------                      ------------------------

                                     IN                                         IN
                                     --                                         --
        PRECIPITATION =        1.1739D+07          PRECIPITATION =                  
           STREAMFLOW =                               STREAMFLOW =                  
     GW BOUNDARY FLOW =                         GW BOUNDARY FLOW =                  


                                    OUT                                        OUT
                                    ---                                        ---
   EVAPOTRANSPIRATION =        3071218.00     EVAPOTRANSPIRATION =           7106.06
           STREAMFLOW =        1926066.41             STREAMFLOW =          18001.71
     GW BOUNDARY FLOW =          81877.83       GW BOUNDARY FLOW =            650.25

   INFLOWS - OUTFLOWS =        6659526.53     INFLOWS - OUTFLOWS =         -25758.02
             --------                                   --------

 TOTAL STORAGE CHANGE =        6666608.06         STORAGE CHANGE =         -25727.34
       --------------                             --------------
         LAND SURFACE =        6649417.45           LAND SURFACE =          -7106.06
            SOIL ZONE =        2197736.49              SOIL ZONE =            522.26
     UNSATURATED ZONE =       -1593323.32       UNSATURATED ZONE =         -11431.36
       SATURATED ZONE =        -587222.57         SATURATED ZONE =          -7712.17

 OVERALL BUDGET ERROR =          -7081.53           BUDGET ERROR =            -30.69


  PERCENT DISCREPANCY =             -0.06    PERCENT DISCREPANCY =             -0.12



1
 SUMMARY VOLUMETRIC BUDGET FOR GSFLOW 
 DATE: 02 10 1981              CUMULATIVE TIME STEP:     133
 MODFLOW STRESS PERIOD      2     CURRENT TIME STEP:     133     ITERATIONS:       7

 -----------------------------------------------------------------------------------

   CUMULATIVE VOLUMES               L**3   RATES FOR THIS TIME STEP           L**3/T
   ------------------                      ------------------------

                                     IN                                         IN
                                     --                                         --
        PRECIPITATION =        1.1838D+07          PRECIPITATION =                  
           STREAMFLOW =                               STREAMFLOW =                  
     GW BOUNDARY FLOW =                         GW BOUNDARY FLOW =                  


                                    OUT                                        OUT
                                    ---                                        ---
   EVAPOTRANSPIRATION =        3192321.51     EVAPOTRANSPIRATION =          32343.27
           STREAMFLOW =        2052347.39             STREAMFLOW =          18068.40
     GW BOUNDARY FLOW =          86429.62       GW BOUNDARY FLOW =            650.25

   INFLOWS - OUTFLOWS =        6507154.75     INFLOWS - OUTFLOWS =         -51061.92
             --------                                   --------

 TOTAL STORAGE CHANGE =        6514529.26         STORAGE CHANGE =         -51004.34
       --------------                             --------------
         LAND SURFACE =        6627878.44           LAND SURFACE =         -32343.27
            SOIL ZONE =        2201732.29              SOIL ZONE =            462.28
     UNSATURATED ZONE =       -1670965.19       UNSATURATED ZONE =         -10718.93
       SATURATED ZONE =        -644116.28         SATURATED ZONE =          -8404.42

 OVERALL BUDGET ERROR =          -7374.50           BUDGET ERROR =            -57.58


  PERCENT DISCREPANCY =             -0.06    PERCENT DISCREPANCY =             -0.11



1
 SUMMARY VOLUMETRIC BUDGET FOR GSFLOW 
 DATE: 02 17 1981              CUMULATIVE TIME STEP:     140
 MODFLOW STRESS PERIOD      2     CURRENT TIME STEP:     140     ITERATIONS:      14

 -----------------------------------------------------------------------------------

   CUMULATIVE VOLUMES               L**3   RATES FOR THIS TIME STEP           L**3/T
   ------------------                      ------------------------

                                     IN                                         IN
                                     --                                         --
        PRECIPITATION =        1.2765D+07          PRECIPITATION =          68929.28
           STREAMFLOW =                               STREAMFLOW =                  
     GW BOUNDARY FLOW =                         GW BOUNDARY FLOW =                  


                                    OUT                                        OUT
                                    ---                                        ---
   EVAPOTRANSPIRATION =        3518088.40     EVAPOTRANSPIRATION =          59831.41
           STREAMFLOW =        2565657.64             STREAMFLOW =         119943.02
     GW BOUNDARY FLOW =          91002.18       GW BOUNDARY FLOW =            656.58

   INFLOWS - OUTFLOWS =        6590220.89     INFLOWS - OUTFLOWS =        -111501.73
             --------                                   --------

 TOTAL STORAGE CHANGE =        6597827.54         STORAGE CHANGE =        -111504.41
       --------------                             --------------
         LAND SURFACE =        5733342.74           LAND SURFACE =        -263707.47
            SOIL ZONE =        2970444.91              SOIL ZONE =          74473.14
     UNSATURATED ZONE =       -1442333.59       UNSATURATED ZONE =          75766.47
       SATURATED ZONE =        -663626.52         SATURATED ZONE =           1963.44

 OVERALL BUDGET ERROR =          -7606.65           BUDGET ERROR =              2.68


  PERCENT DISCREPANCY =             -0.06    PERCENT DISCREPANCY =              0.00



1
 SUMMARY VOLUMETRIC BUDGET FOR GSFLOW 
 DATE: 02 24 1981              CUMULATIVE TIME STEP:     147
 MODFLOW STRESS PERIOD      2     CURRENT TIME STEP:     147     ITERATIONS:      13

 -----------------------------------------------------------------------------------

   CUMULATIVE VOLUMES               L**3   RATES FOR THIS TIME STEP           L**3/T
   ------------------                      ------------------------

                                     IN                                         IN
                                     --                                         --
        PRECIPITATION =        1.3179D+07          PRECIPITATION =         344646.37
           STREAMFLOW =                               STREAMFLOW =                  
     GW BOUNDARY FLOW =                         GW BOUNDARY FLOW =                  


                                    OUT                                        OUT
                                    ---                                        ---
   EVAPOTRANSPIRATION =        3850464.50     EVAPOTRANSPIRATION =          18156.56
           STREAMFLOW =        3117244.51             STREAMFLOW =          50174.30
     GW BOUNDARY FLOW =          95594.59       GW BOUNDARY FLOW =            655.06

   INFLOWS - OUTFLOWS =        6115241.15     INFLOWS - OUTFLOWS =         275660.44
             --------                                   --------

 TOTAL STORAGE CHANGE =        6122749.48         STORAGE CHANGE =         275643.00
       --------------                             --------------
         LAND SURFACE =        5134001.56           LAND SURFACE =         302140.01
            SOIL ZONE =        2719121.07              SOIL ZONE =         -55897.73
     UNSATURATED ZONE =       -1087800.65       UNSATURATED ZONE =          27331.66
       SATURATED ZONE =        -642572.51         SATURATED ZONE =           2069.06

 OVERALL BUDGET ERROR =          -7508.32           BUDGET ERROR =             17.44


  PERCENT DISCREPANCY =             -0.06    PERCENT DISCREPANCY =              0.01



1
 SUMMARY VOLUMETRIC BUDGET FOR GSFLOW 
 DATE: 03 03 1981              CUMULATIVE TIME STEP:     154
 MODFLOW STRESS PERIOD      2     CURRENT TIME STEP:     154     ITERATIONS:      12

 -----------------------------------------------------------------------------------

   CUMULATIVE VOLUMES               L**3   RATES FOR THIS TIME STEP           L**3/T
   ------------------                      ------------------------

                                     IN                                         IN
                                     --                                         --
        PRECIPITATION =        1.3447D+07          PRECIPITATION =                  
           STREAMFLOW =                               STREAMFLOW =                  
     GW BOUNDARY FLOW =                         GW BOUNDARY FLOW =                  


                                    OUT                                        OUT
                                    ---                                        ---
   EVAPOTRANSPIRATION =        3997250.46     EVAPOTRANSPIRATION =          40644.00
           STREAMFLOW =        3338269.82             STREAMFLOW =          27132.64
     GW BOUNDARY FLOW =         100167.19       GW BOUNDARY FLOW =            652.27

   INFLOWS - OUTFLOWS =        6010915.57     INFLOWS - OUTFLOWS =         -68428.91
             --------                                   --------

 TOTAL STORAGE CHANGE =        6018256.22         STORAGE CHANGE =         -68452.38
       --------------                             --------------
         LAND SURFACE =        5236571.47           LAND SURFACE =         -57449.18
            SOIL ZONE =        2512520.33              SOIL ZONE =            385.11
     UNSATURATED ZONE =       -1081738.04       UNSATURATED ZONE =          -8841.55
       SATURATED ZONE =        -649097.53         SATURATED ZONE =          -2546.76

 OVERALL BUDGET ERROR =          -7340.65           BUDGET ERROR =             23.46


  PERCENT DISCREPANCY =             -0.05    PERCENT DISCREPANCY =              0.03



1
 SUMMARY VOLUMETRIC BUDGET FOR GSFLOW 
 DATE: 03 10 1981              CUMULATIVE TIME STEP:     161
 MODFLOW STRESS PERIOD      2     CURRENT TIME STEP:     161     ITERATIONS:      11

 -----------------------------------------------------------------------------------

   CUMULATIVE VOLUMES               L**3   RATES FOR THIS TIME STEP           L**3/T
   ------------------                      ------------------------

                                     IN                                         IN
                                     --                                         --
        PRECIPITATION =        1.3493D+07          PRECIPITATION =                  
           STREAMFLOW =                               STREAMFLOW =                  
     GW BOUNDARY FLOW =                         GW BOUNDARY FLOW =                  


                                    OUT                                        OUT
                                    ---                                        ---
   EVAPOTRANSPIRATION =        4309110.59     EVAPOTRANSPIRATION =          67192.35
           STREAMFLOW =        3558839.15             STREAMFLOW =          40119.86
     GW BOUNDARY FLOW =         104732.21       GW BOUNDARY FLOW =            652.69

   INFLOWS - OUTFLOWS =        5520259.21     INFLOWS - OUTFLOWS =        -107964.90
             --------                                   --------

 TOTAL STORAGE CHANGE =        5527495.95         STORAGE CHANGE =        -107977.78
       --------------                             --------------
         LAND SURFACE =        4665498.38           LAND SURFACE =        -147188.93
            SOIL ZONE =        2601081.94              SOIL ZONE =          24948.14
     UNSATURATED ZONE =       -1073142.55       UNSATURATED ZONE =          15666.94
       SATURATED ZONE =        -665941.82         SATURATED ZONE =          -1403.93

 OVERALL BUDGET ERROR =          -7236.74           BUDGET ERROR =             12.89


  PERCENT DISCREPANCY =             -0.05    PERCENT DISCREPANCY =              0.01



1
 SUMMARY VOLUMETRIC BUDGET FOR GSFLOW 
 DATE: 03 17 1981              CUMULATIVE TIME STEP:     168
 MODFLOW STRESS PERIOD      2     CURRENT TIME STEP:     168     ITERATIONS:       9

 -----------------------------------------------------------------------------------

   CUMULATIVE VOLUMES               L**3   RATES FOR THIS TIME STEP           L**3/T
   ------------------                      ------------------------

                                     IN                                         IN
                                     --                                         --
        PRECIPITATION =        1.3744D+07          PRECIPITATION =                  
           STREAMFLOW =                               STREAMFLOW =                  
     GW BOUNDARY FLOW =                         GW BOUNDARY FLOW =                  


                                    OUT                                        OUT
                                    ---                                        ---
   EVAPOTRANSPIRATION =        4625783.27     EVAPOTRANSPIRATION =          33262.65
           STREAMFLOW =        3775257.73             STREAMFLOW =          23648.58
     GW BOUNDARY FLOW =         109298.37       GW BOUNDARY FLOW =            651.78

   INFLOWS - OUTFLOWS =        5234151.52     INFLOWS - OUTFLOWS =         -57563.01
             --------                                   --------

 TOTAL STORAGE CHANGE =        5241275.19         STORAGE CHANGE =         -57574.22
       --------------                             --------------
         LAND SURFACE =        4532338.76           LAND SURFACE =         -32994.50
            SOIL ZONE =        2464986.47              SOIL ZONE =          -5110.75
     UNSATURATED ZONE =       -1068655.28       UNSATURATED ZONE =         -14667.98
       SATURATED ZONE =        -687394.77         SATURATED ZONE =          -4800.98

 OVERALL BUDGET ERROR =          -7123.67           BUDGET ERROR =             11.20


  PERCENT DISCREPANCY =             -0.05    PERCENT DISCREPANCY =              0.02



1
 SUMMARY VOLUMETRIC BUDGET FOR GSFLOW 
 DATE: 03 24 1981              CUMULATIVE TIME STEP:     175
 MODFLOW STRESS PERIOD      2     CURRENT TIME STEP:     175     ITERATIONS:       9

 -----------------------------------------------------------------------------------

   CUMULATIVE VOLUMES               L**3   RATES FOR THIS TIME STEP           L**3/T
   ------------------                      ------------------------

                                     IN                                         IN
                                     --                                         --
        PRECIPITATION =        1.4367D+07          PRECIPITATION =                  
           STREAMFLOW =                               STREAMFLOW =                  
     GW BOUNDARY FLOW =                         GW BOUNDARY FLOW =                  


                                    OUT                                        OUT
                                    ---                                        ---
   EVAPOTRANSPIRATION =        4945606.54     EVAPOTRANSPIRATION =          80764.17
           STREAMFLOW =        3939923.50             STREAMFLOW =          25014.78
     GW BOUNDARY FLOW =         113857.88       GW BOUNDARY FLOW =            651.26

   INFLOWS - OUTFLOWS =        5367357.60     INFLOWS - OUTFLOWS =        -106430.21
             --------                                   --------

 TOTAL STORAGE CHANGE =        5374456.67         STORAGE CHANGE =        -106427.45
       --------------                             --------------
         LAND SURFACE =        4882235.57           LAND SURFACE =         -56598.13
            SOIL ZONE =        2366214.34              SOIL ZONE =         -38087.09
     UNSATURATED ZONE =       -1147830.96       UNSATURATED ZONE =          -6069.15
       SATURATED ZONE =        -726162.27         SATURATED ZONE =          -5673.08

 OVERALL BUDGET ERROR =          -7099.07           BUDGET ERROR =             -2.76


  PERCENT DISCREPANCY =             -0.05    PERCENT DISCREPANCY =             -0.00



1
 SUMMARY VOLUMETRIC BUDGET FOR GSFLOW 
 DATE: 03 31 1981              CUMULATIVE TIME STEP:     182
 MODFLOW STRESS PERIOD      2     CURRENT TIME STEP:     182     ITERATIONS:      12

 -----------------------------------------------------------------------------------

   CUMULATIVE VOLUMES               L**3   RATES FOR THIS TIME STEP           L**3/T
   ------------------                      ------------------------

                                     IN                                         IN
                                     --                                         --
        PRECIPITATION =        1.5777D+07          PRECIPITATION =                  
           STREAMFLOW =                               STREAMFLOW =                  
     GW BOUNDARY FLOW =                         GW BOUNDARY FLOW =                  


                                    OUT                                        OUT
                                    ---                                        ---
   EVAPOTRANSPIRATION =        5333779.84     EVAPOTRANSPIRATION =          42424.06
           STREAMFLOW =        4386270.87             STREAMFLOW =          33723.73
     GW BOUNDARY FLOW =         118436.17       GW BOUNDARY FLOW =            653.15

   INFLOWS - OUTFLOWS =        5938261.10     INFLOWS - OUTFLOWS =         -76800.93
             --------                                   --------

 TOTAL STORAGE CHANGE =        5945253.31         STORAGE CHANGE =         -76821.93
       --------------                             --------------
         LAND SURFACE =        5101875.85           LAND SURFACE =         -42987.31
            SOIL ZONE =        2534053.28              SOIL ZONE =         -32547.31
     UNSATURATED ZONE =        -959872.70       UNSATURATED ZONE =           1191.91
       SATURATED ZONE =        -730803.12         SATURATED ZONE =          -2479.21

 OVERALL BUDGET ERROR =          -6992.21           BUDGET ERROR =             20.99


  PERCENT DISCREPANCY =             -0.04    PERCENT DISCREPANCY =              0.03



1
 SUMMARY VOLUMETRIC BUDGET FOR GSFLOW 
 DATE: 04 07 1981              CUMULATIVE TIME STEP:     189
 MODFLOW STRESS PERIOD      2     CURRENT TIME STEP:     189     ITERATIONS:      10

 -----------------------------------------------------------------------------------

   CUMULATIVE VOLUMES               L**3   RATES FOR THIS TIME STEP           L**3/T
   ------------------                      ------------------------

                                     IN                                         IN
                                     --                                         --
        PRECIPITATION =        1.6121D+07          PRECIPITATION =                  
           STREAMFLOW =                               STREAMFLOW =                  
     GW BOUNDARY FLOW =                         GW BOUNDARY FLOW =                  


                                    OUT                                        OUT
                                    ---                                        ---
   EVAPOTRANSPIRATION =        5928228.64     EVAPOTRANSPIRATION =          97287.85
           STREAMFLOW =        4680503.27             STREAMFLOW =          42099.91
     GW BOUNDARY FLOW =         123009.12       GW BOUNDARY FLOW =            653.55

   INFLOWS - OUTFLOWS =        5389726.58     INFLOWS - OUTFLOWS =        -140041.32
             --------                                   --------

 TOTAL STORAGE CHANGE =        5396597.19         STORAGE CHANGE =        -140057.14
       --------------                             --------------
         LAND SURFACE =        4536824.57           LAND SURFACE =        -138203.79
            SOIL ZONE =        2495740.51              SOIL ZONE =         -11851.77
     UNSATURATED ZONE =        -895630.36       UNSATURATED ZONE =          10847.21
       SATURATED ZONE =        -740337.53         SATURATED ZONE =           -848.79

 OVERALL BUDGET ERROR =          -6870.61           BUDGET ERROR =             15.82


  PERCENT DISCREPANCY =             -0.04    PERCENT DISCREPANCY =              0.01



1
 SUMMARY VOLUMETRIC BUDGET FOR GSFLOW 
 DATE: 04 14 1981              CUMULATIVE TIME STEP:     196
 MODFLOW STRESS PERIOD      2     CURRENT TIME STEP:     196     ITERATIONS:      13

 -----------------------------------------------------------------------------------

   CUMULATIVE VOLUMES               L**3   RATES FOR THIS TIME STEP           L**3/T
   ------------------                      ------------------------

                                     IN                                         IN
                                     --                                         --
        PRECIPITATION =        1.6121D+07          PRECIPITATION =                  
           STREAMFLOW =                               STREAMFLOW =                  
     GW BOUNDARY FLOW =                         GW BOUNDARY FLOW =                  


                                    OUT                                        OUT
                                    ---                                        ---
   EVAPOTRANSPIRATION =        6791657.81     EVAPOTRANSPIRATION =         187136.52
           STREAMFLOW =        5017357.15             STREAMFLOW =          60744.46
     GW BOUNDARY FLOW =         127584.80       GW BOUNDARY FLOW =            653.96

   INFLOWS - OUTFLOWS =        4184867.86     INFLOWS - OUTFLOWS =        -248534.93
             --------                                   --------

 TOTAL STORAGE CHANGE =        4191591.22         STORAGE CHANGE =        -248546.17
       --------------                             --------------
         LAND SURFACE =        3249108.93           LAND SURFACE =        -276414.16
            SOIL ZONE =        2467690.68              SOIL ZONE =           -574.93
     UNSATURATED ZONE =        -784209.11       UNSATURATED ZONE =          26648.06
       SATURATED ZONE =        -740999.29         SATURATED ZONE =           1794.86

 OVERALL BUDGET ERROR =          -6723.36           BUDGET ERROR =             11.24


  PERCENT DISCREPANCY =             -0.04    PERCENT DISCREPANCY =              0.00



1
 SUMMARY VOLUMETRIC BUDGET FOR GSFLOW 
 DATE: 04 21 1981              CUMULATIVE TIME STEP:     203
 MODFLOW STRESS PERIOD      2     CURRENT TIME STEP:     203     ITERATIONS:      14

 -----------------------------------------------------------------------------------

   CUMULATIVE VOLUMES               L**3   RATES FOR THIS TIME STEP           L**3/T
   ------------------                      ------------------------

                                     IN                                         IN
                                     --                                         --
        PRECIPITATION =        1.6310D+07          PRECIPITATION =                  
           STREAMFLOW =                               STREAMFLOW =                  
     GW BOUNDARY FLOW =                         GW BOUNDARY FLOW =                  


                                    OUT                                        OUT
                                    ---                                        ---
   EVAPOTRANSPIRATION =        7836059.69     EVAPOTRANSPIRATION =         153838.02
           STREAMFLOW =        5403816.05             STREAMFLOW =          53832.16
     GW BOUNDARY FLOW =         132159.16       GW BOUNDARY FLOW =            653.13

   INFLOWS - OUTFLOWS =        2938207.74     INFLOWS - OUTFLOWS =        -208323.31
             --------                                   --------

 TOTAL STORAGE CHANGE =        2944765.52         STORAGE CHANGE =        -208340.95
       --------------                             --------------
         LAND SURFACE =        1941586.43           LAND SURFACE =        -141315.80
            SOIL ZONE =        2354005.20              SOIL ZONE =         -93484.39
     UNSATURATED ZONE =        -626282.12       UNSATURATED ZONE =          23406.34
       SATURATED ZONE =        -724543.99         SATURATED ZONE =           3052.90

 OVERALL BUDGET ERROR =          -6557.78           BUDGET ERROR =             17.64


  PERCENT DISCREPANCY =             -0.04    PERCENT DISCREPANCY =              0.01



1
 SUMMARY VOLUMETRIC BUDGET FOR GSFLOW 
 DATE: 04 28 1981              CUMULATIVE TIME STEP:     210
 MODFLOW STRESS PERIOD      2     CURRENT TIME STEP:     210     ITERATIONS:      14

 -----------------------------------------------------------------------------------

   CUMULATIVE VOLUMES               L**3   RATES FOR THIS TIME STEP           L**3/T
   ------------------                      ------------------------

                                     IN                                         IN
                                     --                                         --
        PRECIPITATION =        1.6515D+07          PRECIPITATION =                  
           STREAMFLOW =                               STREAMFLOW =                  
     GW BOUNDARY FLOW =                         GW BOUNDARY FLOW =                  


                                    OUT                                        OUT
                                    ---                                        ---
   EVAPOTRANSPIRATION =        9095666.89     EVAPOTRANSPIRATION =         210763.96
           STREAMFLOW =        5664062.89             STREAMFLOW =          30403.59
     GW BOUNDARY FLOW =         136722.60       GW BOUNDARY FLOW =            650.99

   INFLOWS - OUTFLOWS =        1618980.50     INFLOWS - OUTFLOWS =        -241818.54
             --------                                   --------

 TOTAL STORAGE CHANGE =        1625362.01         STORAGE CHANGE =        -241847.09
       --------------                             --------------
         LAND SURFACE =        1047886.51           LAND SURFACE =        -108965.88
            SOIL ZONE =        1858737.36              SOIL ZONE =        -138312.02
     UNSATURATED ZONE =        -569907.96       UNSATURATED ZONE =           3856.64
       SATURATED ZONE =        -711353.91         SATURATED ZONE =           1574.17

 OVERALL BUDGET ERROR =          -6381.50           BUDGET ERROR =             28.55


  PERCENT DISCREPANCY =             -0.04    PERCENT DISCREPANCY =              0.01



1
 SUMMARY VOLUMETRIC BUDGET FOR GSFLOW 
 DATE: 05 05 1981              CUMULATIVE TIME STEP:     217
 MODFLOW STRESS PERIOD      2     CURRENT TIME STEP:     217     ITERATIONS:      14

 -----------------------------------------------------------------------------------

   CUMULATIVE VOLUMES               L**3   RATES FOR THIS TIME STEP           L**3/T
   ------------------                      ------------------------

                                     IN                                         IN
                                     --                                         --
        PRECIPITATION =        1.6515D+07          PRECIPITATION =                  
           STREAMFLOW =                               STREAMFLOW =                  
     GW BOUNDARY FLOW =                         GW BOUNDARY FLOW =                  


                                    OUT                                        OUT
                                    ---                                        ---
   EVAPOTRANSPIRATION =        9953922.56     EVAPOTRANSPIRATION =          47249.46
           STREAMFLOW =        5787271.17             STREAMFLOW =          11742.18
     GW BOUNDARY FLOW =         141271.46       GW BOUNDARY FLOW =            649.01

   INFLOWS - OUTFLOWS =         632967.69     INFLOWS - OUTFLOWS =         -59640.65
             --------                                   --------

 TOTAL STORAGE CHANGE =         639206.23         STORAGE CHANGE =         -59659.36
       --------------                             --------------
         LAND SURFACE =         583908.85           LAND SURFACE =         -19597.75
            SOIL ZONE =        1412558.84              SOIL ZONE =         -23662.64
     UNSATURATED ZONE =        -637531.04       UNSATURATED ZONE =         -14259.21
       SATURATED ZONE =        -719730.41         SATURATED ZONE =          -2139.76

 OVERALL BUDGET ERROR =          -6238.54           BUDGET ERROR =             18.71


  PERCENT DISCREPANCY =             -0.04    PERCENT DISCREPANCY =              0.03



1
 SUMMARY VOLUMETRIC BUDGET FOR GSFLOW 
 DATE: 05 12 1981              CUMULATIVE TIME STEP:     224
 MODFLOW STRESS PERIOD      2     CURRENT TIME STEP:     224     ITERATIONS:      12

 -----------------------------------------------------------------------------------

   CUMULATIVE VOLUMES               L**3   RATES FOR THIS TIME STEP           L**3/T
   ------------------                      ------------------------

                                     IN                                         IN
                                     --                                         --
        PRECIPITATION =        1.6515D+07          PRECIPITATION =                  
           STREAMFLOW =                               STREAMFLOW =                  
     GW BOUNDARY FLOW =                         GW BOUNDARY FLOW =                  


                                    OUT                                        OUT
                                    ---                                        ---
   EVAPOTRANSPIRATION =        1.0487D+07     EVAPOTRANSPIRATION =         102655.66
           STREAMFLOW =        5868357.48             STREAMFLOW =          12808.86
     GW BOUNDARY FLOW =         145811.46       GW BOUNDARY FLOW =            648.47

   INFLOWS - OUTFLOWS =          14282.58     INFLOWS - OUTFLOWS =        -116112.99
             --------                                   --------

 TOTAL STORAGE CHANGE =          20410.51         STORAGE CHANGE =        -116129.27
       --------------                             --------------
         LAND SURFACE =         364139.12           LAND SURFACE =         -39545.55
            SOIL ZONE =        1129436.74              SOIL ZONE =         -61841.09
     UNSATURATED ZONE =        -730519.43       UNSATURATED ZONE =         -10481.46
       SATURATED ZONE =        -742645.92         SATURATED ZONE =          -4261.16

 OVERALL BUDGET ERROR =          -6127.93           BUDGET ERROR =             16.27


  PERCENT DISCREPANCY =             -0.04    PERCENT DISCREPANCY =              0.01



1
 SUMMARY VOLUMETRIC BUDGET FOR GSFLOW 
 DATE: 05 19 1981              CUMULATIVE TIME STEP:     231
 MODFLOW STRESS PERIOD      2     CURRENT TIME STEP:     231     ITERATIONS:      19

 -----------------------------------------------------------------------------------

   CUMULATIVE VOLUMES               L**3   RATES FOR THIS TIME STEP           L**3/T
   ------------------                      ------------------------

                                     IN                                         IN
                                     --                                         --
        PRECIPITATION =        1.7837D+07          PRECIPITATION =         169045.43
           STREAMFLOW =                               STREAMFLOW =                  
     GW BOUNDARY FLOW =                         GW BOUNDARY FLOW =                  


                                    OUT                                        OUT
                                    ---                                        ---
   EVAPOTRANSPIRATION =        1.0833D+07     EVAPOTRANSPIRATION =          31098.89
           STREAMFLOW =        6022298.31             STREAMFLOW =          31393.85
     GW BOUNDARY FLOW =         150352.99       GW BOUNDARY FLOW =            649.96

   INFLOWS - OUTFLOWS =         831012.02     INFLOWS - OUTFLOWS =         105902.73
             --------                                   --------

 TOTAL STORAGE CHANGE =         837059.59         STORAGE CHANGE =         105890.25
       --------------                             --------------
         LAND SURFACE =         315733.71           LAND SURFACE =          16905.78
            SOIL ZONE =        2065601.25              SOIL ZONE =          86266.49
     UNSATURATED ZONE =        -768122.71       UNSATURATED ZONE =           6897.46
       SATURATED ZONE =        -776152.67         SATURATED ZONE =          -4179.48

 OVERALL BUDGET ERROR =          -6047.57           BUDGET ERROR =             12.48


  PERCENT DISCREPANCY =             -0.03    PERCENT DISCREPANCY =              0.01



1
 SUMMARY VOLUMETRIC BUDGET FOR GSFLOW 
 DATE: 05 26 1981              CUMULATIVE TIME STEP:     238
 MODFLOW STRESS PERIOD      2     CURRENT TIME STEP:     238     ITERATIONS:      14

 -----------------------------------------------------------------------------------

   CUMULATIVE VOLUMES               L**3   RATES FOR THIS TIME STEP           L**3/T
   ------------------                      ------------------------

                                     IN                                         IN
                                     --                                         --
        PRECIPITATION =        1.8252D+07          PRECIPITATION =         284303.67
           STREAMFLOW =                               STREAMFLOW =                  
     GW BOUNDARY FLOW =                         GW BOUNDARY FLOW =                  


                                    OUT                                        OUT
                                    ---                                        ---
   EVAPOTRANSPIRATION =        1.1626D+07     EVAPOTRANSPIRATION =         126247.52
           STREAMFLOW =        6158965.69             STREAMFLOW =          24072.20
     GW BOUNDARY FLOW =         154897.10       GW BOUNDARY FLOW =            648.95

   INFLOWS - OUTFLOWS =         311938.00     INFLOWS - OUTFLOWS =         133335.01
             --------                                   --------

 TOTAL STORAGE CHANGE =         317927.56         STORAGE CHANGE =         133326.41
       --------------                             --------------
         LAND SURFACE =         197572.68           LAND SURFACE =         -13397.86
            SOIL ZONE =        1731968.00              SOIL ZONE =         158564.98
     UNSATURATED ZONE =        -794996.73       UNSATURATED ZONE =          -6313.86
       SATURATED ZONE =        -816616.39         SATURATED ZONE =          -5526.84

 OVERALL BUDGET ERROR =          -5989.56           BUDGET ERROR =              8.60


  PERCENT DISCREPANCY =             -0.03    PERCENT DISCREPANCY =              0.00



1
 SUMMARY VOLUMETRIC BUDGET FOR GSFLOW 
 DATE: 06 02 1981              CUMULATIVE TIME STEP:     245
 MODFLOW STRESS PERIOD      2     CURRENT TIME STEP:     245     ITERATIONS:      17

 -----------------------------------------------------------------------------------

   CUMULATIVE VOLUMES               L**3   RATES FOR THIS TIME STEP           L**3/T
   ------------------                      ------------------------

                                     IN                                         IN
                                     --                                         --
        PRECIPITATION =        1.8318D+07          PRECIPITATION =          50869.96
           STREAMFLOW =                               STREAMFLOW =                  
     GW BOUNDARY FLOW =                         GW BOUNDARY FLOW =                  


                                    OUT                                        OUT
                                    ---                                        ---
   EVAPOTRANSPIRATION =        1.2456D+07     EVAPOTRANSPIRATION =          66862.76
           STREAMFLOW =        6245457.34             STREAMFLOW =           9164.58
     GW BOUNDARY FLOW =         159434.90       GW BOUNDARY FLOW =            647.72

   INFLOWS - OUTFLOWS =        -542222.99     INFLOWS - OUTFLOWS =         -25805.10
             --------                                   --------

 TOTAL STORAGE CHANGE =        -536285.06         STORAGE CHANGE =         -25814.89
       --------------                             --------------
         LAND SURFACE =         119474.98           LAND SURFACE =          25659.25
            SOIL ZONE =        1084917.07              SOIL ZONE =         -31378.50
     UNSATURATED ZONE =        -872536.07       UNSATURATED ZONE =         -12175.88
       SATURATED ZONE =        -868141.04         SATURATED ZONE =          -7919.76

 OVERALL BUDGET ERROR =          -5937.93           BUDGET ERROR =              9.79


  PERCENT DISCREPANCY =             -0.03    PERCENT DISCREPANCY =              0.01



1
 SUMMARY VOLUMETRIC BUDGET FOR GSFLOW 
 DATE: 06 09 1981              CUMULATIVE TIME STEP:     252
 MODFLOW STRESS PERIOD      2     CURRENT TIME STEP:     252     ITERATIONS:      15

 -----------------------------------------------------------------------------------

   CUMULATIVE VOLUMES               L**3   RATES FOR THIS TIME STEP           L**3/T
   ------------------                      ------------------------

                                     IN                                         IN
                                     --                                         --
        PRECIPITATION =        1.8318D+07          PRECIPITATION =                  
           STREAMFLOW =                               STREAMFLOW =                  
     GW BOUNDARY FLOW =                         GW BOUNDARY FLOW =                  


                                    OUT                                        OUT
                                    ---                                        ---
   EVAPOTRANSPIRATION =        1.3016D+07     EVAPOTRANSPIRATION =          57156.26
           STREAMFLOW =        6300449.73             STREAMFLOW =           7220.59
     GW BOUNDARY FLOW =         163966.34       GW BOUNDARY FLOW =            647.13

   INFLOWS - OUTFLOWS =       -1162038.49     INFLOWS - OUTFLOWS =         -65023.98
             --------                                   --------

 TOTAL STORAGE CHANGE =       -1156140.24         STORAGE CHANGE =         -65029.47
       --------------                             --------------
         LAND SURFACE =          39669.53           LAND SURFACE =          -4382.74
            SOIL ZONE =         686675.28              SOIL ZONE =         -40146.32
     UNSATURATED ZONE =        -955234.07       UNSATURATED ZONE =         -11863.55
       SATURATED ZONE =        -927250.98         SATURATED ZONE =          -8636.87

 OVERALL BUDGET ERROR =          -5898.25           BUDGET ERROR =              5.49


  PERCENT DISCREPANCY =             -0.03    PERCENT DISCREPANCY =              0.01



1
 SUMMARY VOLUMETRIC BUDGET FOR GSFLOW 
 DATE: 06 16 1981              CUMULATIVE TIME STEP:     259
 MODFLOW STRESS PERIOD      2     CURRENT TIME STEP:     259     ITERATIONS:      14

 -----------------------------------------------------------------------------------

   CUMULATIVE VOLUMES               L**3   RATES FOR THIS TIME STEP           L**3/T
   ------------------                      ------------------------

                                     IN                                         IN
                                     --                                         --
        PRECIPITATION =        1.8318D+07          PRECIPITATION =                  
           STREAMFLOW =                               STREAMFLOW =                  
     GW BOUNDARY FLOW =                         GW BOUNDARY FLOW =                  


                                    OUT                                        OUT
                                    ---                                        ---
   EVAPOTRANSPIRATION =        1.3225D+07     EVAPOTRANSPIRATION =          49071.91
           STREAMFLOW =        6348133.96             STREAMFLOW =           6660.21
     GW BOUNDARY FLOW =         168495.11       GW BOUNDARY FLOW =            646.87

   INFLOWS - OUTFLOWS =       -1423400.79     INFLOWS - OUTFLOWS =         -56378.99
             --------                                   --------

 TOTAL STORAGE CHANGE =       -1417529.64         STORAGE CHANGE =         -56380.82
       --------------                             --------------
         LAND SURFACE =          25589.68           LAND SURFACE =          -3042.77
            SOIL ZONE =         588894.66              SOIL ZONE =         -31691.34
     UNSATURATED ZONE =       -1042043.95       UNSATURATED ZONE =         -12616.74
       SATURATED ZONE =        -989970.02         SATURATED ZONE =          -9029.97

 OVERALL BUDGET ERROR =          -5871.15           BUDGET ERROR =              1.83


  PERCENT DISCREPANCY =             -0.03    PERCENT DISCREPANCY =              0.00



1
 SUMMARY VOLUMETRIC BUDGET FOR GSFLOW 
 DATE: 06 23 1981              CUMULATIVE TIME STEP:     266
 MODFLOW STRESS PERIOD      2     CURRENT TIME STEP:     266     ITERATIONS:      18

 -----------------------------------------------------------------------------------

   CUMULATIVE VOLUMES               L**3   RATES FOR THIS TIME STEP           L**3/T
   ------------------                      ------------------------

                                     IN                                         IN
                                     --                                         --
        PRECIPITATION =        1.8318D+07          PRECIPITATION =                  
           STREAMFLOW =                               STREAMFLOW =                  
     GW BOUNDARY FLOW =                         GW BOUNDARY FLOW =                  


                                    OUT                                        OUT
                                    ---                                        ---
   EVAPOTRANSPIRATION =        1.3568D+07     EVAPOTRANSPIRATION =          40272.61
           STREAMFLOW =        6392495.40             STREAMFLOW =           6086.00
     GW BOUNDARY FLOW =         173022.27       GW BOUNDARY FLOW =            646.64

   INFLOWS - OUTFLOWS =       -1815371.13     INFLOWS - OUTFLOWS =         -47005.25
             --------                                   --------

 TOTAL STORAGE CHANGE =       -1809548.75         STORAGE CHANGE =         -47012.64
       --------------                             --------------
         LAND SURFACE =           6959.28           LAND SURFACE =          -1578.51
            SOIL ZONE =         368340.77              SOIL ZONE =         -23672.90
     UNSATURATED ZONE =       -1129238.92       UNSATURATED ZONE =         -12187.57
       SATURATED ZONE =       -1055609.88         SATURATED ZONE =          -9573.65

 OVERALL BUDGET ERROR =          -5822.39           BUDGET ERROR =              7.39


  PERCENT DISCREPANCY =             -0.03    PERCENT DISCREPANCY =              0.02



1
 SUMMARY VOLUMETRIC BUDGET FOR GSFLOW 
 DATE: 06 30 1981              CUMULATIVE TIME STEP:     273
 MODFLOW STRESS PERIOD      2     CURRENT TIME STEP:     273     ITERATIONS:      14

 -----------------------------------------------------------------------------------

   CUMULATIVE VOLUMES               L**3   RATES FOR THIS TIME STEP           L**3/T
   ------------------                      ------------------------

                                     IN                                         IN
[...]
                                    ---                                        ---
   EVAPOTRANSPIRATION =        2.8438D+08     EVAPOTRANSPIRATION =          49549.27
           STREAMFLOW =        1.8433D+08             STREAMFLOW =           7342.02
     GW BOUNDARY FLOW =        3736518.85       GW BOUNDARY FLOW =            651.07

   INFLOWS - OUTFLOWS =       -7386284.49     INFLOWS - OUTFLOWS =         -57542.35
             --------                                   --------

 TOTAL STORAGE CHANGE =       -7285692.72         STORAGE CHANGE =         -57558.97
       --------------                             --------------
         LAND SURFACE =         214963.45           LAND SURFACE =         -10645.32
            SOIL ZONE =         343312.17              SOIL ZONE =         -25489.40
     UNSATURATED ZONE =        5399169.08       UNSATURATED ZONE =         -28157.87
       SATURATED ZONE =       -1.3243D+07         SATURATED ZONE =           6733.63

 OVERALL BUDGET ERROR =        -100591.77           BUDGET ERROR =             16.61


  PERCENT DISCREPANCY =             -0.02    PERCENT DISCREPANCY =              0.03



1
 SUMMARY VOLUMETRIC BUDGET FOR GSFLOW 
 DATE: 07 30 1996              CUMULATIVE TIME STEP:    5782
 MODFLOW STRESS PERIOD      2     CURRENT TIME STEP:    5782     ITERATIONS:      15

 -----------------------------------------------------------------------------------

   CUMULATIVE VOLUMES               L**3   RATES FOR THIS TIME STEP           L**3/T
   ------------------                      ------------------------

                                     IN                                         IN
                                     --                                         --
        PRECIPITATION =        4.6511D+08          PRECIPITATION =                  
           STREAMFLOW =                               STREAMFLOW =                  
     GW BOUNDARY FLOW =                         GW BOUNDARY FLOW =                  


                                    OUT                                        OUT
                                    ---                                        ---
   EVAPOTRANSPIRATION =        2.8469D+08     EVAPOTRANSPIRATION =          32621.68
           STREAMFLOW =        1.8438D+08             STREAMFLOW =           7043.20
     GW BOUNDARY FLOW =        3741074.55       GW BOUNDARY FLOW =            650.65

   INFLOWS - OUTFLOWS =       -7699366.78     INFLOWS - OUTFLOWS =         -40315.53
             --------                                   --------

 TOTAL STORAGE CHANGE =       -7598961.67         STORAGE CHANGE =         -40343.50
       --------------                             --------------
         LAND SURFACE =         152309.38           LAND SURFACE =          -7555.65
            SOIL ZONE =         243648.17              SOIL ZONE =         -11322.84
     UNSATURATED ZONE =        5201391.55       UNSATURATED ZONE =         -27831.94
       SATURATED ZONE =       -1.3196D+07         SATURATED ZONE =           6366.94

 OVERALL BUDGET ERROR =        -100405.11           BUDGET ERROR =             27.97


  PERCENT DISCREPANCY =             -0.02    PERCENT DISCREPANCY =              0.07



1
 SUMMARY VOLUMETRIC BUDGET FOR GSFLOW 
 DATE: 08 06 1996              CUMULATIVE TIME STEP:    5789
 MODFLOW STRESS PERIOD      2     CURRENT TIME STEP:    5789     ITERATIONS:      14

 -----------------------------------------------------------------------------------

   CUMULATIVE VOLUMES               L**3   RATES FOR THIS TIME STEP           L**3/T
   ------------------                      ------------------------

                                     IN                                         IN
                                     --                                         --
        PRECIPITATION =        4.6511D+08          PRECIPITATION =                  
           STREAMFLOW =                               STREAMFLOW =                  
     GW BOUNDARY FLOW =                         GW BOUNDARY FLOW =                  


                                    OUT                                        OUT
                                    ---                                        ---
   EVAPOTRANSPIRATION =        2.8487D+08     EVAPOTRANSPIRATION =          26110.34
           STREAMFLOW =        1.8443D+08             STREAMFLOW =           6763.40
     GW BOUNDARY FLOW =        3745628.77       GW BOUNDARY FLOW =            650.54

   INFLOWS - OUTFLOWS =       -7936407.74     INFLOWS - OUTFLOWS =         -33524.28
             --------                                   --------

 TOTAL STORAGE CHANGE =       -7836191.58         STORAGE CHANGE =         -33553.92
       --------------                             --------------
         LAND SURFACE =         111776.46           LAND SURFACE =          -5017.65
            SOIL ZONE =         195865.10              SOIL ZONE =          -7398.48
     UNSATURATED ZONE =        5012466.60       UNSATURATED ZONE =         -26251.93
       SATURATED ZONE =       -1.3156D+07         SATURATED ZONE =           5114.13

 OVERALL BUDGET ERROR =        -100216.15           BUDGET ERROR =             29.64


  PERCENT DISCREPANCY =             -0.02    PERCENT DISCREPANCY =              0.09



1
 SUMMARY VOLUMETRIC BUDGET FOR GSFLOW 
 DATE: 08 13 1996              CUMULATIVE TIME STEP:    5796
 MODFLOW STRESS PERIOD      2     CURRENT TIME STEP:    5796     ITERATIONS:      15

 -----------------------------------------------------------------------------------

   CUMULATIVE VOLUMES               L**3   RATES FOR THIS TIME STEP           L**3/T
   ------------------                      ------------------------

                                     IN                                         IN
                                     --                                         --
        PRECIPITATION =        4.6531D+08          PRECIPITATION =          54454.08
           STREAMFLOW =                               STREAMFLOW =                  
     GW BOUNDARY FLOW =                         GW BOUNDARY FLOW =                  


                                    OUT                                        OUT
                                    ---                                        ---
   EVAPOTRANSPIRATION =        2.8509D+08     EVAPOTRANSPIRATION =          36347.16
           STREAMFLOW =        1.8448D+08             STREAMFLOW =           7968.45
     GW BOUNDARY FLOW =        3750182.10       GW BOUNDARY FLOW =            650.49

   INFLOWS - OUTFLOWS =       -8001676.34     INFLOWS - OUTFLOWS =           9487.99
             --------                                   --------

 TOTAL STORAGE CHANGE =       -7901622.95         STORAGE CHANGE =           9458.74
       --------------                             --------------
         LAND SURFACE =         105220.94           LAND SURFACE =          -5194.35
            SOIL ZONE =         283357.68              SOIL ZONE =          35377.88
     UNSATURATED ZONE =        4832389.15       UNSATURATED ZONE =         -25084.51
       SATURATED ZONE =       -1.3123D+07         SATURATED ZONE =           4359.72

 OVERALL BUDGET ERROR =        -100053.40           BUDGET ERROR =             29.25


  PERCENT DISCREPANCY =             -0.02    PERCENT DISCREPANCY =              0.05



1
 SUMMARY VOLUMETRIC BUDGET FOR GSFLOW 
 DATE: 08 20 1996              CUMULATIVE TIME STEP:    5803
 MODFLOW STRESS PERIOD      2     CURRENT TIME STEP:    5803     ITERATIONS:      14

 -----------------------------------------------------------------------------------

   CUMULATIVE VOLUMES               L**3   RATES FOR THIS TIME STEP           L**3/T
   ------------------                      ------------------------

                                     IN                                         IN
                                     --                                         --
        PRECIPITATION =        4.6531D+08          PRECIPITATION =                  
           STREAMFLOW =                               STREAMFLOW =                  
     GW BOUNDARY FLOW =                         GW BOUNDARY FLOW =                  


                                    OUT                                        OUT
                                    ---                                        ---
   EVAPOTRANSPIRATION =        2.8531D+08     EVAPOTRANSPIRATION =          18205.09
           STREAMFLOW =        1.8453D+08             STREAMFLOW =           6518.16
     GW BOUNDARY FLOW =        3754733.84       GW BOUNDARY FLOW =            650.07

   INFLOWS - OUTFLOWS =       -8272567.13     INFLOWS - OUTFLOWS =         -25373.31
             --------                                   --------

 TOTAL STORAGE CHANGE =       -8172672.22         STORAGE CHANGE =         -25388.84
       --------------                             --------------
         LAND SURFACE =          44442.31           LAND SURFACE =          -2851.34
            SOIL ZONE =         217819.03              SOIL ZONE =          -1983.36
     UNSATURATED ZONE =        4661422.75       UNSATURATED ZONE =         -23925.39
       SATURATED ZONE =       -1.3096D+07         SATURATED ZONE =           3371.25

 OVERALL BUDGET ERROR =         -99894.92           BUDGET ERROR =             15.53


  PERCENT DISCREPANCY =             -0.02    PERCENT DISCREPANCY =              0.06



1
 SUMMARY VOLUMETRIC BUDGET FOR GSFLOW 
 DATE: 08 27 1996              CUMULATIVE TIME STEP:    5810
 MODFLOW STRESS PERIOD      2     CURRENT TIME STEP:    5810     ITERATIONS:      13

 -----------------------------------------------------------------------------------

   CUMULATIVE VOLUMES               L**3   RATES FOR THIS TIME STEP           L**3/T
   ------------------                      ------------------------

                                     IN                                         IN
                                     --                                         --
        PRECIPITATION =        4.6531D+08          PRECIPITATION =                  
           STREAMFLOW =                               STREAMFLOW =                  
     GW BOUNDARY FLOW =                         GW BOUNDARY FLOW =                  


                                    OUT                                        OUT
                                    ---                                        ---
   EVAPOTRANSPIRATION =        2.8547D+08     EVAPOTRANSPIRATION =          16907.23
           STREAMFLOW =        1.8457D+08             STREAMFLOW =           6353.64
     GW BOUNDARY FLOW =        3759282.77       GW BOUNDARY FLOW =            649.68

   INFLOWS - OUTFLOWS =       -8483248.25     INFLOWS - OUTFLOWS =         -23910.55
             --------                                   --------

 TOTAL STORAGE CHANGE =       -8383548.79         STORAGE CHANGE =         -23938.13
       --------------                             --------------
         LAND SURFACE =          21435.23           LAND SURFACE =          -2621.72
            SOIL ZONE =         172864.16              SOIL ZONE =          -1008.63
     UNSATURATED ZONE =        4499921.77       UNSATURATED ZONE =         -22562.52
       SATURATED ZONE =       -1.3078D+07         SATURATED ZONE =           2254.74

 OVERALL BUDGET ERROR =         -99699.45           BUDGET ERROR =             27.58


  PERCENT DISCREPANCY =             -0.02    PERCENT DISCREPANCY =              0.12



1
 SUMMARY VOLUMETRIC BUDGET FOR GSFLOW 
 DATE: 09 03 1996              CUMULATIVE TIME STEP:    5817
 MODFLOW STRESS PERIOD      2     CURRENT TIME STEP:    5817     ITERATIONS:      13

 -----------------------------------------------------------------------------------

   CUMULATIVE VOLUMES               L**3   RATES FOR THIS TIME STEP           L**3/T
   ------------------                      ------------------------

                                     IN                                         IN
                                     --                                         --
        PRECIPITATION =        4.6531D+08          PRECIPITATION =                  
           STREAMFLOW =                               STREAMFLOW =                  
     GW BOUNDARY FLOW =                         GW BOUNDARY FLOW =                  


                                    OUT                                        OUT
                                    ---                                        ---
   EVAPOTRANSPIRATION =        2.8558D+08     EVAPOTRANSPIRATION =          15245.72
           STREAMFLOW =        1.8461D+08             STREAMFLOW =           6238.92
     GW BOUNDARY FLOW =        3763828.89       GW BOUNDARY FLOW =            649.27

   INFLOWS - OUTFLOWS =       -8650338.76     INFLOWS - OUTFLOWS =         -22133.90
             --------                                   --------

 TOTAL STORAGE CHANGE =       -8550847.79         STORAGE CHANGE =         -22164.04
       --------------                             --------------
         LAND SURFACE =           7240.32           LAND SURFACE =          -1278.90
            SOIL ZONE =         160953.92              SOIL ZONE =           -816.20
     UNSATURATED ZONE =        4346419.82       UNSATURATED ZONE =         -21732.39
       SATURATED ZONE =       -1.3065D+07         SATURATED ZONE =           1663.45

 OVERALL BUDGET ERROR =         -99490.97           BUDGET ERROR =             30.14


  PERCENT DISCREPANCY =             -0.02    PERCENT DISCREPANCY =              0.14



1
 SUMMARY VOLUMETRIC BUDGET FOR GSFLOW 
 DATE: 09 10 1996              CUMULATIVE TIME STEP:    5824
 MODFLOW STRESS PERIOD      2     CURRENT TIME STEP:    5824     ITERATIONS:      13

 -----------------------------------------------------------------------------------

   CUMULATIVE VOLUMES               L**3   RATES FOR THIS TIME STEP           L**3/T
   ------------------                      ------------------------

                                     IN                                         IN
                                     --                                         --
        PRECIPITATION =        4.6531D+08          PRECIPITATION =                  
           STREAMFLOW =                               STREAMFLOW =                  
     GW BOUNDARY FLOW =                         GW BOUNDARY FLOW =                  


                                    OUT                                        OUT
                                    ---                                        ---
   EVAPOTRANSPIRATION =        2.8567D+08     EVAPOTRANSPIRATION =          13782.38
           STREAMFLOW =        1.8466D+08             STREAMFLOW =           6131.03
     GW BOUNDARY FLOW =        3768372.20       GW BOUNDARY FLOW =            648.87

   INFLOWS - OUTFLOWS =       -8787715.43     INFLOWS - OUTFLOWS =         -20562.28
             --------                                   --------

 TOTAL STORAGE CHANGE =       -8688470.36         STORAGE CHANGE =         -20589.61
       --------------                             --------------
         LAND SURFACE =           2510.71           LAND SURFACE =           -704.62
            SOIL ZONE =         167660.08              SOIL ZONE =            -46.41
     UNSATURATED ZONE =        4197172.64       UNSATURATED ZONE =         -20958.82
       SATURATED ZONE =       -1.3056D+07         SATURATED ZONE =           1120.24

 OVERALL BUDGET ERROR =         -99245.07           BUDGET ERROR =             27.33


  PERCENT DISCREPANCY =             -0.02    PERCENT DISCREPANCY =              0.13



1
 SUMMARY VOLUMETRIC BUDGET FOR GSFLOW 
 DATE: 09 17 1996              CUMULATIVE TIME STEP:    5831
 MODFLOW STRESS PERIOD      2     CURRENT TIME STEP:    5831     ITERATIONS:      12

 -----------------------------------------------------------------------------------

   CUMULATIVE VOLUMES               L**3   RATES FOR THIS TIME STEP           L**3/T
   ------------------                      ------------------------

                                     IN                                         IN
                                     --                                         --
        PRECIPITATION =        4.6637D+08          PRECIPITATION =                  
           STREAMFLOW =                               STREAMFLOW =                  
     GW BOUNDARY FLOW =                         GW BOUNDARY FLOW =                  


                                    OUT                                        OUT
                                    ---                                        ---
   EVAPOTRANSPIRATION =        2.8585D+08     EVAPOTRANSPIRATION =          52774.70
           STREAMFLOW =        1.8472D+08             STREAMFLOW =          10113.47
     GW BOUNDARY FLOW =        3772914.70       GW BOUNDARY FLOW =            649.25

   INFLOWS - OUTFLOWS =       -7979472.74     INFLOWS - OUTFLOWS =         -63537.43
             --------                                   --------

 TOTAL STORAGE CHANGE =       -7880497.32         STORAGE CHANGE =         -63573.68
       --------------                             --------------
         LAND SURFACE =            882.14           LAND SURFACE =         -33826.70
            SOIL ZONE =        1113292.56              SOIL ZONE =         -10116.18
     UNSATURATED ZONE =        4052709.29       UNSATURATED ZONE =         -20304.83
       SATURATED ZONE =       -1.3047D+07         SATURATED ZONE =            674.04

 OVERALL BUDGET ERROR =         -98975.42           BUDGET ERROR =             36.24


  PERCENT DISCREPANCY =             -0.02    PERCENT DISCREPANCY =              0.06



1
 SUMMARY VOLUMETRIC BUDGET FOR GSFLOW 
 DATE: 09 24 1996              CUMULATIVE TIME STEP:    5838
 MODFLOW STRESS PERIOD      2     CURRENT TIME STEP:    5838     ITERATIONS:      12

 -----------------------------------------------------------------------------------

   CUMULATIVE VOLUMES               L**3   RATES FOR THIS TIME STEP           L**3/T
   ------------------                      ------------------------

                                     IN                                         IN
                                     --                                         --
        PRECIPITATION =        4.6637D+08          PRECIPITATION =                  
           STREAMFLOW =                               STREAMFLOW =                  
     GW BOUNDARY FLOW =                         GW BOUNDARY FLOW =                  


                                    OUT                                        OUT
                                    ---                                        ---
   EVAPOTRANSPIRATION =        2.8632D+08     EVAPOTRANSPIRATION =          54897.83
           STREAMFLOW =        1.8478D+08             STREAMFLOW =           6671.08
     GW BOUNDARY FLOW =        3777455.52       GW BOUNDARY FLOW =            648.36

   INFLOWS - OUTFLOWS =       -8510027.37     INFLOWS - OUTFLOWS =         -62217.27
             --------                                   --------

 TOTAL STORAGE CHANGE =       -8411306.01         STORAGE CHANGE =         -62250.04
       --------------                             --------------
         LAND SURFACE =                             LAND SURFACE =                  
            SOIL ZONE =         720066.18              SOIL ZONE =         -42809.97
     UNSATURATED ZONE =        3915053.19       UNSATURATED ZONE =         -19291.80
       SATURATED ZONE =       -1.3046D+07         SATURATED ZONE =           -148.27

 OVERALL BUDGET ERROR =         -98721.36           BUDGET ERROR =             32.77


  PERCENT DISCREPANCY =             -0.02    PERCENT DISCREPANCY =              0.05



