1
 SUMMARY VOLUMETRIC BUDGET FOR GSFLOW 
 DATE: 10 07 1980              CUMULATIVE TIME STEP:       7
 MODFLOW STRESS PERIOD      2     CURRENT TIME STEP:       7     ITERATIONS:       6

 -----------------------------------------------------------------------------------

   CUMULATIVE VOLUMES               L**3   RATES FOR THIS TIME STEP           L**3/T
   ------------------                      ------------------------

                                     IN                                         IN
                                     --                                         --
        PRECIPITATION =                            PRECIPITATION =                  
           STREAMFLOW =                               STREAMFLOW =                  
     GW BOUNDARY FLOW =                         GW BOUNDARY FLOW =                  


                                    OUT                                        OUT
                                    ---                                        ---
   EVAPOTRANSPIRATION =          65413.18     EVAPOTRANSPIRATION =           9161.73
           STREAMFLOW =          42957.50             STREAMFLOW =           6065.76
     GW BOUNDARY FLOW =           4541.44       GW BOUNDARY FLOW =            648.70

   INFLOWS - OUTFLOWS =        -112912.12     INFLOWS - OUTFLOWS =         -15876.19
             --------                                   --------

 TOTAL STORAGE CHANGE =        -112516.51         STORAGE CHANGE =         -15815.60
       --------------                             --------------
         LAND SURFACE =                             LAND SURFACE =                  
            SOIL ZONE =          45102.80              SOIL ZONE =           6534.58
     UNSATURATED ZONE =        -144779.04       UNSATURATED ZONE =         -20361.32
       SATURATED ZONE =         -12840.27         SATURATED ZONE =          -1988.86

 OVERALL BUDGET ERROR =           -395.61           BUDGET ERROR =            -60.59


  PERCENT DISCREPANCY =             -0.35    PERCENT DISCREPANCY =             -0.38



1
 SUMMARY VOLUMETRIC BUDGET FOR GSFLOW 
 DATE: 10 14 1980              CUMULATIVE TIME STEP:      14
 MODFLOW STRESS PERIOD      2     CURRENT TIME STEP:      14     ITERATIONS:       6

 -----------------------------------------------------------------------------------

   CUMULATIVE VOLUMES               L**3   RATES FOR THIS TIME STEP           L**3/T
   ------------------                      ------------------------

                                     IN                                         IN
                                     --                                         --
        PRECIPITATION =         650779.83          PRECIPITATION =         164754.40
           STREAMFLOW =                               STREAMFLOW =                  
     GW BOUNDARY FLOW =                         GW BOUNDARY FLOW =                  


                                    OUT                                        OUT
                                    ---                                        ---
   EVAPOTRANSPIRATION =         162110.65     EVAPOTRANSPIRATION =          11475.04
           STREAMFLOW =          94453.31             STREAMFLOW =           7710.02
     GW BOUNDARY FLOW =           9082.95       GW BOUNDARY FLOW =            648.93

   INFLOWS - OUTFLOWS =         385132.91     INFLOWS - OUTFLOWS =         144920.41
             --------                                   --------

 TOTAL STORAGE CHANGE =         385973.27         STORAGE CHANGE =         144982.68
       --------------                             --------------
         LAND SURFACE =         183750.31           LAND SURFACE =         130549.56
            SOIL ZONE =         514290.51              SOIL ZONE =          36464.39
     UNSATURATED ZONE =        -284496.61       UNSATURATED ZONE =         -19624.97
       SATURATED ZONE =         -27570.93         SATURATED ZONE =          -2406.30

 OVERALL BUDGET ERROR =           -840.36           BUDGET ERROR =            -62.28


  PERCENT DISCREPANCY =             -0.13    PERCENT DISCREPANCY =             -0.04



1
 SUMMARY VOLUMETRIC BUDGET FOR GSFLOW 
 DATE: 10 21 1980              CUMULATIVE TIME STEP:      21
 MODFLOW STRESS PERIOD      2     CURRENT TIME STEP:      21     ITERATIONS:       6

 -----------------------------------------------------------------------------------

   CUMULATIVE VOLUMES               L**3   RATES FOR THIS TIME STEP           L**3/T
   ------------------                      ------------------------

                                     IN                                         IN
                                     --                                         --
        PRECIPITATION =         733157.03          PRECIPITATION =                  
           STREAMFLOW =                               STREAMFLOW =                  
     GW BOUNDARY FLOW =                         GW BOUNDARY FLOW =                  


                                    OUT                                        OUT
                                    ---                                        ---
   EVAPOTRANSPIRATION =         397424.30     EVAPOTRANSPIRATION =          34265.31
           STREAMFLOW =         145722.60             STREAMFLOW =           6918.52
     GW BOUNDARY FLOW =          13624.70       GW BOUNDARY FLOW =            648.74

   INFLOWS - OUTFLOWS =         176385.42     INFLOWS - OUTFLOWS =         -41832.57
             --------                                   --------

 TOTAL STORAGE CHANGE =         177676.47         STORAGE CHANGE =         -41762.91
       --------------                             --------------
         LAND SURFACE =                             LAND SURFACE =                  
            SOIL ZONE =         642897.26              SOIL ZONE =         -19907.87
     UNSATURATED ZONE =        -418665.43       UNSATURATED ZONE =         -18826.98
       SATURATED ZONE =         -46555.36         SATURATED ZONE =          -3028.06

 OVERALL BUDGET ERROR =          -1291.05           BUDGET ERROR =            -69.66


  PERCENT DISCREPANCY =             -0.18    PERCENT DISCREPANCY =             -0.17



1
 SUMMARY VOLUMETRIC BUDGET FOR GSFLOW 
 DATE: 10 28 1980              CUMULATIVE TIME STEP:      28
 MODFLOW STRESS PERIOD      2     CURRENT TIME STEP:      28     ITERATIONS:       6

 -----------------------------------------------------------------------------------

   CUMULATIVE VOLUMES               L**3   RATES FOR THIS TIME STEP           L**3/T
   ------------------                      ------------------------

                                     IN                                         IN
                                     --                                         --
        PRECIPITATION =        1070903.53          PRECIPITATION =                  
           STREAMFLOW =                               STREAMFLOW =                  
     GW BOUNDARY FLOW =                         GW BOUNDARY FLOW =                  


                                    OUT                                        OUT
                                    ---                                        ---
   EVAPOTRANSPIRATION =         582938.83     EVAPOTRANSPIRATION =          24800.27
           STREAMFLOW =         200316.59             STREAMFLOW =           7957.45
     GW BOUNDARY FLOW =          18165.95       GW BOUNDARY FLOW =            648.80

   INFLOWS - OUTFLOWS =         269482.16     INFLOWS - OUTFLOWS =         -33406.52
             --------                                   --------

 TOTAL STORAGE CHANGE =         271277.05         STORAGE CHANGE =         -33332.37
       --------------                             --------------
         LAND SURFACE =          20571.53           LAND SURFACE =         -29890.85
            SOIL ZONE =         867135.10              SOIL ZONE =          18047.34
     UNSATURATED ZONE =        -547248.89       UNSATURATED ZONE =         -17998.36
       SATURATED ZONE =         -69180.68         SATURATED ZONE =          -3490.50

 OVERALL BUDGET ERROR =          -1794.89           BUDGET ERROR =            -74.15


  PERCENT DISCREPANCY =             -0.17    PERCENT DISCREPANCY =             -0.22



1
 SUMMARY VOLUMETRIC BUDGET FOR GSFLOW 
 DATE: 11 04 1980              CUMULATIVE TIME STEP:      35
 MODFLOW STRESS PERIOD      2     CURRENT TIME STEP:      35     ITERATIONS:       8

 -----------------------------------------------------------------------------------

   CUMULATIVE VOLUMES               L**3   RATES FOR THIS TIME STEP           L**3/T
   ------------------                      ------------------------

                                     IN                                         IN
                                     --                                         --
        PRECIPITATION =        1070903.53          PRECIPITATION =                  
           STREAMFLOW =                               STREAMFLOW =                  
     GW BOUNDARY FLOW =                         GW BOUNDARY FLOW =                  


                                    OUT                                        OUT
                                    ---                                        ---
   EVAPOTRANSPIRATION =         914036.59     EVAPOTRANSPIRATION =          46790.12
           STREAMFLOW =         252879.27             STREAMFLOW =           7065.06
     GW BOUNDARY FLOW =          22706.95       GW BOUNDARY FLOW =            648.65

   INFLOWS - OUTFLOWS =        -118719.28     INFLOWS - OUTFLOWS =         -54503.82
             --------                                   --------

 TOTAL STORAGE CHANGE =        -116521.38         STORAGE CHANGE =         -54451.56
       --------------                             --------------
         LAND SURFACE =                             LAND SURFACE =                  
            SOIL ZONE =         650576.18              SOIL ZONE =         -32920.38
     UNSATURATED ZONE =        -670645.75       UNSATURATED ZONE =         -17360.87
       SATURATED ZONE =         -96451.81         SATURATED ZONE =          -4170.30

 OVERALL BUDGET ERROR =          -2197.90           BUDGET ERROR =            -52.26


  PERCENT DISCREPANCY =             -0.18    PERCENT DISCREPANCY =             -0.10



1
 SUMMARY VOLUMETRIC BUDGET FOR GSFLOW 
 DATE: 11 11 1980              CUMULATIVE TIME STEP:      42
 MODFLOW STRESS PERIOD      2     CURRENT TIME STEP:      42     ITERATIONS:       7

 -----------------------------------------------------------------------------------

   CUMULATIVE VOLUMES               L**3   RATES FOR THIS TIME STEP           L**3/T
   ------------------                      ------------------------

                                     IN                                         IN
                                     --                                         --
        PRECIPITATION =        1573762.54          PRECIPITATION =         255182.19
           STREAMFLOW =                               STREAMFLOW =                  
     GW BOUNDARY FLOW =                         GW BOUNDARY FLOW =                  


                                    OUT                                        OUT
                                    ---                                        ---
   EVAPOTRANSPIRATION =        1126830.07     EVAPOTRANSPIRATION =          18310.96
           STREAMFLOW =         310065.23             STREAMFLOW =          10976.55
     GW BOUNDARY FLOW =          27247.80       GW BOUNDARY FLOW =            648.87

   INFLOWS - OUTFLOWS =         109619.45     INFLOWS - OUTFLOWS =         225245.81
             --------                                   --------

 TOTAL STORAGE CHANGE =         112280.47         STORAGE CHANGE =         225299.76
       --------------                             --------------
         LAND SURFACE =          76960.22           LAND SURFACE =          76747.38
            SOIL ZONE =         950816.13              SOIL ZONE =         169167.98
     UNSATURATED ZONE =        -789133.64       UNSATURATED ZONE =         -16539.26
       SATURATED ZONE =        -126362.24         SATURATED ZONE =          -4076.34

 OVERALL BUDGET ERROR =          -2661.02           BUDGET ERROR =            -53.95


  PERCENT DISCREPANCY =             -0.17    PERCENT DISCREPANCY =             -0.02



1
 SUMMARY VOLUMETRIC BUDGET FOR GSFLOW 
 DATE: 11 18 1980              CUMULATIVE TIME STEP:      49
 MODFLOW STRESS PERIOD      2     CURRENT TIME STEP:      49     ITERATIONS:       6

 -----------------------------------------------------------------------------------

   CUMULATIVE VOLUMES               L**3   RATES FOR THIS TIME STEP           L**3/T
   ------------------                      ------------------------

                                     IN                                         IN
                                     --                                         --
        PRECIPITATION =        1573762.54          PRECIPITATION =                  
           STREAMFLOW =                               STREAMFLOW =                  
     GW BOUNDARY FLOW =                         GW BOUNDARY FLOW =                  


                                    OUT                                        OUT
                                    ---                                        ---
   EVAPOTRANSPIRATION =        1218121.87     EVAPOTRANSPIRATION =          16354.82
           STREAMFLOW =         373286.77             STREAMFLOW =           9229.68
     GW BOUNDARY FLOW =          31789.78       GW BOUNDARY FLOW =            648.86

   INFLOWS - OUTFLOWS =         -49435.88     INFLOWS - OUTFLOWS =         -26233.36
             --------                                   --------

 TOTAL STORAGE CHANGE =         -46244.52         STORAGE CHANGE =         -26150.14
       --------------                             --------------
         LAND SURFACE =           8139.47           LAND SURFACE =          -4965.50
            SOIL ZONE =        1007645.47              SOIL ZONE =           -331.81
     UNSATURATED ZONE =        -903045.25       UNSATURATED ZONE =         -16046.50
       SATURATED ZONE =        -158984.21         SATURATED ZONE =          -4806.33

 OVERALL BUDGET ERROR =          -3191.36           BUDGET ERROR =            -83.22


  PERCENT DISCREPANCY =             -0.20    PERCENT DISCREPANCY =             -0.32



1
 SUMMARY VOLUMETRIC BUDGET FOR GSFLOW 
 DATE: 11 25 1980              CUMULATIVE TIME STEP:      56
 MODFLOW STRESS PERIOD      2     CURRENT TIME STEP:      56     ITERATIONS:       7

 -----------------------------------------------------------------------------------

   CUMULATIVE VOLUMES               L**3   RATES FOR THIS TIME STEP           L**3/T
   ------------------                      ------------------------

                                     IN                                         IN
                                     --                                         --
        PRECIPITATION =        1648816.13          PRECIPITATION =                  
           STREAMFLOW =                               STREAMFLOW =                  
     GW BOUNDARY FLOW =                         GW BOUNDARY FLOW =                  


                                    OUT                                        OUT
                                    ---                                        ---
   EVAPOTRANSPIRATION =        1300908.36     EVAPOTRANSPIRATION =           9317.10
           STREAMFLOW =         438142.60             STREAMFLOW =           9371.30
     GW BOUNDARY FLOW =          36331.82       GW BOUNDARY FLOW =            648.87

   INFLOWS - OUTFLOWS =        -126566.66     INFLOWS - OUTFLOWS =         -19337.28
             --------                                   --------

 TOTAL STORAGE CHANGE =        -122827.50         STORAGE CHANGE =         -19266.47
       --------------                             --------------
         LAND SURFACE =          54136.41           LAND SURFACE =          -9258.02
            SOIL ZONE =        1031068.36              SOIL ZONE =          10826.82
     UNSATURATED ZONE =       -1012744.99       UNSATURATED ZONE =         -15410.07
       SATURATED ZONE =        -195287.27         SATURATED ZONE =          -5425.20

 OVERALL BUDGET ERROR =          -3739.16           BUDGET ERROR =            -70.81


  PERCENT DISCREPANCY =             -0.21    PERCENT DISCREPANCY =             -0.37



1
 SUMMARY VOLUMETRIC BUDGET FOR GSFLOW 
 DATE: 12 02 1980              CUMULATIVE TIME STEP:      63
 MODFLOW STRESS PERIOD      2     CURRENT TIME STEP:      63     ITERATIONS:       8

 -----------------------------------------------------------------------------------

   CUMULATIVE VOLUMES               L**3   RATES FOR THIS TIME STEP           L**3/T
   ------------------                      ------------------------

                                     IN                                         IN
                                     --                                         --
        PRECIPITATION =        2076621.55          PRECIPITATION =                  
           STREAMFLOW =                               STREAMFLOW =                  
     GW BOUNDARY FLOW =                         GW BOUNDARY FLOW =                  


                                    OUT                                        OUT
                                    ---                                        ---
   EVAPOTRANSPIRATION =        1493018.93     EVAPOTRANSPIRATION =          34505.64
           STREAMFLOW =         515497.73             STREAMFLOW =          13736.08
     GW BOUNDARY FLOW =          40874.92       GW BOUNDARY FLOW =            649.28

   INFLOWS - OUTFLOWS =          27229.98     INFLOWS - OUTFLOWS =         -48891.00
             --------                                   --------

 TOTAL STORAGE CHANGE =          31350.49         STORAGE CHANGE =         -48842.50
       --------------                             --------------
         LAND SURFACE =         157031.20           LAND SURFACE =         -76789.76
            SOIL ZONE =        1222189.74              SOIL ZONE =          46020.18
     UNSATURATED ZONE =       -1115154.28       UNSATURATED ZONE =         -13257.08
       SATURATED ZONE =        -232716.17         SATURATED ZONE =          -4815.83

 OVERALL BUDGET ERROR =          -4120.51           BUDGET ERROR =            -48.50


  PERCENT DISCREPANCY =             -0.20    PERCENT DISCREPANCY =             -0.10



1
 SUMMARY VOLUMETRIC BUDGET FOR GSFLOW 
 DATE: 12 09 1980              CUMULATIVE TIME STEP:      70
 MODFLOW STRESS PERIOD      2     CURRENT TIME STEP:      70     ITERATIONS:       7

 -----------------------------------------------------------------------------------

   CUMULATIVE VOLUMES               L**3   RATES FOR THIS TIME STEP           L**3/T
   ------------------                      ------------------------

                                     IN                                         IN
                                     --                                         --
        PRECIPITATION =        4284363.63          PRECIPITATION =                  
           STREAMFLOW =                               STREAMFLOW =                  
     GW BOUNDARY FLOW =                         GW BOUNDARY FLOW =                  


                                    OUT                                        OUT
                                    ---                                        ---
   EVAPOTRANSPIRATION =        1518657.71     EVAPOTRANSPIRATION =           3258.35
           STREAMFLOW =         605317.32             STREAMFLOW =          13193.34
     GW BOUNDARY FLOW =          45420.54       GW BOUNDARY FLOW =            649.47

   INFLOWS - OUTFLOWS =        2114968.06     INFLOWS - OUTFLOWS =         -17101.16
             --------                                   --------

 TOTAL STORAGE CHANGE =        2119523.72         STORAGE CHANGE =         -17040.87
       --------------                             --------------
         LAND SURFACE =        2337504.39           LAND SURFACE =          -3258.35
            SOIL ZONE =        1268032.50              SOIL ZONE =           6377.89
     UNSATURATED ZONE =       -1213914.39       UNSATURATED ZONE =         -14235.38
       SATURATED ZONE =        -272098.78         SATURATED ZONE =          -5925.02

 OVERALL BUDGET ERROR =          -4555.66           BUDGET ERROR =            -60.28


  PERCENT DISCREPANCY =             -0.11    PERCENT DISCREPANCY =             -0.35



1
 SUMMARY VOLUMETRIC BUDGET FOR GSFLOW 
 DATE: 12 16 1980              CUMULATIVE TIME STEP:      77
 MODFLOW STRESS PERIOD      2     CURRENT TIME STEP:      77     ITERATIONS:       7

 -----------------------------------------------------------------------------------

   CUMULATIVE VOLUMES               L**3   RATES FOR THIS TIME STEP           L**3/T
   ------------------                      ------------------------

                                     IN                                         IN
                                     --                                         --
        PRECIPITATION =        4284363.63          PRECIPITATION =                  
           STREAMFLOW =                               STREAMFLOW =                  
     GW BOUNDARY FLOW =                         GW BOUNDARY FLOW =                  


                                    OUT                                        OUT
                                    ---                                        ---
   EVAPOTRANSPIRATION =        1663289.24     EVAPOTRANSPIRATION =          34482.61
           STREAMFLOW =         715298.29             STREAMFLOW =          22874.64
     GW BOUNDARY FLOW =          49967.90       GW BOUNDARY FLOW =            650.04

   INFLOWS - OUTFLOWS =        1855808.19     INFLOWS - OUTFLOWS =         -58007.29
             --------                                   --------

 TOTAL STORAGE CHANGE =        1860793.30         STORAGE CHANGE =         -57953.00
       --------------                             --------------
         LAND SURFACE =        2017009.25           LAND SURFACE =        -133032.47
            SOIL ZONE =        1462135.44              SOIL ZONE =          89442.03
     UNSATURATED ZONE =       -1305095.17       UNSATURATED ZONE =          -9645.75
       SATURATED ZONE =        -313256.22         SATURATED ZONE =          -4716.81

 OVERALL BUDGET ERROR =          -4985.11           BUDGET ERROR =            -54.29


  PERCENT DISCREPANCY =             -0.12    PERCENT DISCREPANCY =             -0.09



1
 SUMMARY VOLUMETRIC BUDGET FOR GSFLOW 
 DATE: 12 23 1980              CUMULATIVE TIME STEP:      84
 MODFLOW STRESS PERIOD      2     CURRENT TIME STEP:      84     ITERATIONS:       9

 -----------------------------------------------------------------------------------

   CUMULATIVE VOLUMES               L**3   RATES FOR THIS TIME STEP           L**3/T
   ------------------                      ------------------------

                                     IN                                         IN
                                     --                                         --
        PRECIPITATION =        4516757.54          PRECIPITATION =                  
           STREAMFLOW =                               STREAMFLOW =                  
     GW BOUNDARY FLOW =                         GW BOUNDARY FLOW =                  


                                    OUT                                        OUT
                                    ---                                        ---
   EVAPOTRANSPIRATION =        1871527.06     EVAPOTRANSPIRATION =          35848.50
           STREAMFLOW =         934345.87             STREAMFLOW =          29962.73
     GW BOUNDARY FLOW =          54527.20       GW BOUNDARY FLOW =            651.84

   INFLOWS - OUTFLOWS =        1656357.41     INFLOWS - OUTFLOWS =         -66463.07
             --------                                   --------

 TOTAL STORAGE CHANGE =        1661608.70         STORAGE CHANGE =         -66435.67
       --------------                             --------------
         LAND SURFACE =        1391476.45           LAND SURFACE =         -50626.27
            SOIL ZONE =        1962079.41              SOIL ZONE =          -5029.11
     UNSATURATED ZONE =       -1349934.14       UNSATURATED ZONE =          -6306.38
       SATURATED ZONE =        -342013.03         SATURATED ZONE =          -4473.91

 OVERALL BUDGET ERROR =          -5251.29           BUDGET ERROR =            -27.40


  PERCENT DISCREPANCY =             -0.12    PERCENT DISCREPANCY =             -0.04



1
 SUMMARY VOLUMETRIC BUDGET FOR GSFLOW 
 DATE: 12 30 1980              CUMULATIVE TIME STEP:      91
 MODFLOW STRESS PERIOD      2     CURRENT TIME STEP:      91     ITERATIONS:      10

 -----------------------------------------------------------------------------------

   CUMULATIVE VOLUMES               L**3   RATES FOR THIS TIME STEP           L**3/T
   ------------------                      ------------------------

                                     IN                                         IN
                                     --                                         --
        PRECIPITATION =        4516757.54          PRECIPITATION =                  
           STREAMFLOW =                               STREAMFLOW =                  
     GW BOUNDARY FLOW =                         GW BOUNDARY FLOW =                  


                                    OUT                                        OUT
                                    ---                                        ---
   EVAPOTRANSPIRATION =        2239249.32     EVAPOTRANSPIRATION =          47015.27
           STREAMFLOW =        1176955.47             STREAMFLOW =          27092.16
     GW BOUNDARY FLOW =          59093.50       GW BOUNDARY FLOW =            652.32

   INFLOWS - OUTFLOWS =        1041459.25     INFLOWS - OUTFLOWS =         -74759.76
             --------                                   --------

 TOTAL STORAGE CHANGE =        1046854.04         STORAGE CHANGE =         -74743.82
       --------------                             --------------
         LAND SURFACE =         579625.21           LAND SURFACE =         -42433.18
            SOIL ZONE =        2199152.84              SOIL ZONE =         -23794.53
     UNSATURATED ZONE =       -1363244.97       UNSATURATED ZONE =          -4019.33
       SATURATED ZONE =        -368679.03         SATURATED ZONE =          -4496.78

 OVERALL BUDGET ERROR =          -5394.79           BUDGET ERROR =            -15.94


  PERCENT DISCREPANCY =             -0.12    PERCENT DISCREPANCY =             -0.02



1
 SUMMARY VOLUMETRIC BUDGET FOR GSFLOW 
 DATE: 01 06 1981              CUMULATIVE TIME STEP:      98
 MODFLOW STRESS PERIOD      2     CURRENT TIME STEP:      98     ITERATIONS:       8

 -----------------------------------------------------------------------------------

   CUMULATIVE VOLUMES               L**3   RATES FOR THIS TIME STEP           L**3/T
   ------------------                      ------------------------

                                     IN                                         IN
                                     --                                         --
        PRECIPITATION =        5004445.43          PRECIPITATION =                  
           STREAMFLOW =                               STREAMFLOW =                  
     GW BOUNDARY FLOW =                         GW BOUNDARY FLOW =                  


                                    OUT                                        OUT
                                    ---                                        ---
   EVAPOTRANSPIRATION =        2456936.48     EVAPOTRANSPIRATION =          18975.60
           STREAMFLOW =        1323762.40             STREAMFLOW =          19906.78
     GW BOUNDARY FLOW =          63654.37       GW BOUNDARY FLOW =            651.10

   INFLOWS - OUTFLOWS =        1160092.18     INFLOWS - OUTFLOWS =         -39533.48
             --------                                   --------

 TOTAL STORAGE CHANGE =        1165651.04         STORAGE CHANGE =         -39499.44
       --------------                             --------------
         LAND SURFACE =         840075.39           LAND SURFACE =         -25549.72
            SOIL ZONE =        2168928.42              SOIL ZONE =           3743.20
     UNSATURATED ZONE =       -1434550.12       UNSATURATED ZONE =         -11684.01
       SATURATED ZONE =        -408802.66         SATURATED ZONE =          -6008.91

 OVERALL BUDGET ERROR =          -5558.86           BUDGET ERROR =            -34.04


  PERCENT DISCREPANCY =             -0.11    PERCENT DISCREPANCY =             -0.09



1
 SUMMARY VOLUMETRIC BUDGET FOR GSFLOW 
 DATE: 01 13 1981              CUMULATIVE TIME STEP:     105
 MODFLOW STRESS PERIOD      2     CURRENT TIME STEP:     105     ITERATIONS:       7

 -----------------------------------------------------------------------------------

   CUMULATIVE VOLUMES               L**3   RATES FOR THIS TIME STEP           L**3/T
   ------------------                      ------------------------

                                     IN                                         IN
                                     --                                         --
        PRECIPITATION =        5004445.43          PRECIPITATION =                  
           STREAMFLOW =                               STREAMFLOW =                  
     GW BOUNDARY FLOW =                         GW BOUNDARY FLOW =                  


                                    OUT                                        OUT
                                    ---                                        ---
   EVAPOTRANSPIRATION =        2658683.76     EVAPOTRANSPIRATION =          41908.26
           STREAMFLOW =        1467566.49             STREAMFLOW =          20108.31
     GW BOUNDARY FLOW =          68210.79       GW BOUNDARY FLOW =            650.79

   INFLOWS - OUTFLOWS =         809984.38     INFLOWS - OUTFLOWS =         -62667.36
             --------                                   --------

 TOTAL STORAGE CHANGE =         815906.17         STORAGE CHANGE =         -62616.73
       --------------                             --------------
         LAND SURFACE =         624161.64           LAND SURFACE =         -38673.92
            SOIL ZONE =        2150151.96              SOIL ZONE =          -8107.14
     UNSATURATED ZONE =       -1504732.05       UNSATURATED ZONE =          -9159.35
       SATURATED ZONE =        -453675.38         SATURATED ZONE =          -6676.33

 OVERALL BUDGET ERROR =          -5921.79           BUDGET ERROR =            -50.63


  PERCENT DISCREPANCY =             -0.12    PERCENT DISCREPANCY =             -0.08



1
 SUMMARY VOLUMETRIC BUDGET FOR GSFLOW 
 DATE: 01 20 1981              CUMULATIVE TIME STEP:     112
 MODFLOW STRESS PERIOD      2     CURRENT TIME STEP:     112     ITERATIONS:       7

 -----------------------------------------------------------------------------------

   CUMULATIVE VOLUMES               L**3   RATES FOR THIS TIME STEP           L**3/T
   ------------------                      ------------------------

                                     IN                                         IN
                                     --                                         --
        PRECIPITATION =        5170466.84          PRECIPITATION =          41505.35
           STREAMFLOW =                               STREAMFLOW =                  
     GW BOUNDARY FLOW =                         GW BOUNDARY FLOW =                  


                                    OUT                                        OUT
                                    ---                                        ---
   EVAPOTRANSPIRATION =        2924087.53     EVAPOTRANSPIRATION =          31294.09
           STREAMFLOW =        1607377.96             STREAMFLOW =          19721.33
     GW BOUNDARY FLOW =          72765.34       GW BOUNDARY FLOW =            650.59

   INFLOWS - OUTFLOWS =         566236.01     INFLOWS - OUTFLOWS =         -10160.66
             --------                                   --------

 TOTAL STORAGE CHANGE =         572481.01         STORAGE CHANGE =         -10110.87
       --------------                             --------------
         LAND SURFACE =         464145.88           LAND SURFACE =           8501.89
            SOIL ZONE =        2149076.05              SOIL ZONE =          -8689.44
     UNSATURATED ZONE =       -1541344.24       UNSATURATED ZONE =          -3167.83
       SATURATED ZONE =        -499396.68         SATURATED ZONE =          -6755.50

 OVERALL BUDGET ERROR =          -6245.01           BUDGET ERROR =            -49.78


  PERCENT DISCREPANCY =             -0.12    PERCENT DISCREPANCY =             -0.10



1
 SUMMARY VOLUMETRIC BUDGET FOR GSFLOW 
 DATE: 01 27 1981              CUMULATIVE TIME STEP:     119
 MODFLOW STRESS PERIOD      2     CURRENT TIME STEP:     119     ITERATIONS:       8

 -----------------------------------------------------------------------------------

   CUMULATIVE VOLUMES               L**3   RATES FOR THIS TIME STEP           L**3/T
   ------------------                      ------------------------

                                     IN                                         IN
                                     --                                         --
        PRECIPITATION =        8646540.08          PRECIPITATION =        2936503.63
           STREAMFLOW =                               STREAMFLOW =                  
     GW BOUNDARY FLOW =                         GW BOUNDARY FLOW =                  


                                    OUT                                        OUT
                                    ---                                        ---
   EVAPOTRANSPIRATION =        3149813.92     EVAPOTRANSPIRATION =          12639.57
           STREAMFLOW =        1749701.57             STREAMFLOW =          18428.72
     GW BOUNDARY FLOW =          77319.27       GW BOUNDARY FLOW =            650.39

   INFLOWS - OUTFLOWS =        3669705.32     INFLOWS - OUTFLOWS =        2904784.95
             --------                                   --------

 TOTAL STORAGE CHANGE =        3676096.83         STORAGE CHANGE =        2904813.49
       --------------                             --------------
         LAND SURFACE =        3592460.11           LAND SURFACE =        2923864.12
            SOIL ZONE =        2168991.40              SOIL ZONE =          -6099.53
     UNSATURATED ZONE =       -1539334.55       UNSATURATED ZONE =          -5918.14
       SATURATED ZONE =        -546020.14         SATURATED ZONE =          -7032.96

 OVERALL BUDGET ERROR =          -6391.51           BUDGET ERROR =            -28.54


  PERCENT DISCREPANCY =             -0.07    PERCENT DISCREPANCY =             -0.00



1
 SUMMARY VOLUMETRIC BUDGET FOR GSFLOW 
 DATE: 02 03 1981              CUMULATIVE TIME STEP:     126
 MODFLOW STRESS PERIOD      2     CURRENT TIME STEP:     126     ITERATIONS:       8

 -----------------------------------------------------------------------------------

   CUMULATIVE VOLUMES               L**3   RATES FOR THIS TIME STEP           L**3/T
   ------------------                      ------------------------

                                     IN                                         IN
                                     --                                         --
        PRECIPITATION =        1.1739D+07          PRECIPITATION =                  
           STREAMFLOW =                               STREAMFLOW =                  
     GW BOUNDARY FLOW =                         GW BOUNDARY FLOW =                  


                                    OUT                                        OUT
                                    ---                                        ---
   EVAPOTRANSPIRATION =        3185005.28     EVAPOTRANSPIRATION =           7106.06
           STREAMFLOW =        1875596.99             STREAMFLOW =          17919.65
     GW BOUNDARY FLOW =          81871.16       GW BOUNDARY FLOW =            650.23

   INFLOWS - OUTFLOWS =        6596215.33     INFLOWS - OUTFLOWS =         -25675.95
             --------                                   --------

 TOTAL STORAGE CHANGE =        6602826.62         STORAGE CHANGE =         -25645.66
       --------------                             --------------
         LAND SURFACE =        6649417.45           LAND SURFACE =          -7106.06
            SOIL ZONE =        2161695.26              SOIL ZONE =            565.77
     UNSATURATED ZONE =       -1609590.41       UNSATURATED ZONE =         -11303.04
       SATURATED ZONE =        -598695.68         SATURATED ZONE =          -7802.33

 OVERALL BUDGET ERROR =          -6611.29           BUDGET ERROR =            -30.29


  PERCENT DISCREPANCY =             -0.06    PERCENT DISCREPANCY =             -0.12



1
 SUMMARY VOLUMETRIC BUDGET FOR GSFLOW 
 DATE: 02 10 1981              CUMULATIVE TIME STEP:     133
 MODFLOW STRESS PERIOD      2     CURRENT TIME STEP:     133     ITERATIONS:       7

 -----------------------------------------------------------------------------------

   CUMULATIVE VOLUMES               L**3   RATES FOR THIS TIME STEP           L**3/T
   ------------------                      ------------------------

                                     IN                                         IN
                                     --                                         --
        PRECIPITATION =        1.1838D+07          PRECIPITATION =                  
           STREAMFLOW =                               STREAMFLOW =                  
     GW BOUNDARY FLOW =                         GW BOUNDARY FLOW =                  


                                    OUT                                        OUT
                                    ---                                        ---
   EVAPOTRANSPIRATION =        3306108.79     EVAPOTRANSPIRATION =          32343.27
           STREAMFLOW =        2001392.81             STREAMFLOW =          18001.70
     GW BOUNDARY FLOW =          86422.82       GW BOUNDARY FLOW =            650.23

   INFLOWS - OUTFLOWS =        6444328.85     INFLOWS - OUTFLOWS =         -50995.20
             --------                                   --------

 TOTAL STORAGE CHANGE =        6451225.23         STORAGE CHANGE =         -50933.99
       --------------                             --------------
         LAND SURFACE =        6627878.44           LAND SURFACE =         -32343.27
            SOIL ZONE =        2165868.38              SOIL ZONE =            531.92
     UNSATURATED ZONE =       -1686697.88       UNSATURATED ZONE =         -10724.40
       SATURATED ZONE =        -655823.71         SATURATED ZONE =          -8398.23

 OVERALL BUDGET ERROR =          -6896.38           BUDGET ERROR =            -61.21


  PERCENT DISCREPANCY =             -0.06    PERCENT DISCREPANCY =             -0.12



1
 SUMMARY VOLUMETRIC BUDGET FOR GSFLOW 
 DATE: 02 17 1981              CUMULATIVE TIME STEP:     140
 MODFLOW STRESS PERIOD      2     CURRENT TIME STEP:     140     ITERATIONS:      14

 -----------------------------------------------------------------------------------

   CUMULATIVE VOLUMES               L**3   RATES FOR THIS TIME STEP           L**3/T
   ------------------                      ------------------------

                                     IN                                         IN
                                     --                                         --
        PRECIPITATION =        1.2765D+07          PRECIPITATION =          68929.28
           STREAMFLOW =                               STREAMFLOW =                  
     GW BOUNDARY FLOW =                         GW BOUNDARY FLOW =                  


                                    OUT                                        OUT
                                    ---                                        ---
   EVAPOTRANSPIRATION =        3631875.68     EVAPOTRANSPIRATION =          59831.41
           STREAMFLOW =        2512756.79             STREAMFLOW =         119609.67
     GW BOUNDARY FLOW =          90995.23       GW BOUNDARY FLOW =            656.55

   INFLOWS - OUTFLOWS =        6529341.41     INFLOWS - OUTFLOWS =        -111168.36
             --------                                   --------

 TOTAL STORAGE CHANGE =        6536461.50         STORAGE CHANGE =        -111164.86
       --------------                             --------------
         LAND SURFACE =        5733342.75           LAND SURFACE =        -263707.47
            SOIL ZONE =        2939287.97              SOIL ZONE =          74638.34
     UNSATURATED ZONE =       -1460799.38       UNSATURATED ZONE =          75881.36
       SATURATED ZONE =        -675369.83         SATURATED ZONE =           2022.90

 OVERALL BUDGET ERROR =          -7120.09           BUDGET ERROR =             -3.50


  PERCENT DISCREPANCY =             -0.06    PERCENT DISCREPANCY =             -0.00



1
 SUMMARY VOLUMETRIC BUDGET FOR GSFLOW 
 DATE: 02 24 1981              CUMULATIVE TIME STEP:     147
 MODFLOW STRESS PERIOD      2     CURRENT TIME STEP:     147     ITERATIONS:      12

 -----------------------------------------------------------------------------------

   CUMULATIVE VOLUMES               L**3   RATES FOR THIS TIME STEP           L**3/T
   ------------------                      ------------------------

                                     IN                                         IN
                                     --                                         --
        PRECIPITATION =        1.3179D+07          PRECIPITATION =         344646.37
           STREAMFLOW =                               STREAMFLOW =                  
     GW BOUNDARY FLOW =                         GW BOUNDARY FLOW =                  


                                    OUT                                        OUT
                                    ---                                        ---
   EVAPOTRANSPIRATION =        3964251.78     EVAPOTRANSPIRATION =          18156.56
           STREAMFLOW =        3062176.04             STREAMFLOW =          49928.34
     GW BOUNDARY FLOW =          95587.45       GW BOUNDARY FLOW =            655.04

   INFLOWS - OUTFLOWS =        6056529.48     INFLOWS - OUTFLOWS =         275906.43
             --------                                   --------

 TOTAL STORAGE CHANGE =        6063555.84         STORAGE CHANGE =         275881.09
       --------------                             --------------
         LAND SURFACE =        5134001.57           LAND SURFACE =         302140.01
            SOIL ZONE =        2689461.23              SOIL ZONE =         -55862.91
     UNSATURATED ZONE =       -1104434.97       UNSATURATED ZONE =          27676.90
       SATURATED ZONE =        -655471.99         SATURATED ZONE =           1927.08

 OVERALL BUDGET ERROR =          -7026.36           BUDGET ERROR =             25.34


  PERCENT DISCREPANCY =             -0.05    PERCENT DISCREPANCY =              0.01



1
 SUMMARY VOLUMETRIC BUDGET FOR GSFLOW 
 DATE: 03 03 1981              CUMULATIVE TIME STEP:     154
 MODFLOW STRESS PERIOD      2     CURRENT TIME STEP:     154     ITERATIONS:      11

 -----------------------------------------------------------------------------------

   CUMULATIVE VOLUMES               L**3   RATES FOR THIS TIME STEP           L**3/T
   ------------------                      ------------------------

                                     IN                                         IN
                                     --                                         --
        PRECIPITATION =        1.3447D+07          PRECIPITATION =                  
           STREAMFLOW =                               STREAMFLOW =                  
     GW BOUNDARY FLOW =                         GW BOUNDARY FLOW =                  


                                    OUT                                        OUT
                                    ---                                        ---
   EVAPOTRANSPIRATION =        4111037.74     EVAPOTRANSPIRATION =          40644.00
           STREAMFLOW =        3281714.29             STREAMFLOW =          26983.73
     GW BOUNDARY FLOW =         100159.86       GW BOUNDARY FLOW =            652.25

   INFLOWS - OUTFLOWS =        5953691.15     INFLOWS - OUTFLOWS =         -68279.98
             --------                                   --------

 TOTAL STORAGE CHANGE =        5960545.59         STORAGE CHANGE =         -68301.77
       --------------                             --------------
         LAND SURFACE =        5236571.47           LAND SURFACE =         -57449.18
            SOIL ZONE =        2484135.64              SOIL ZONE =            443.03
     UNSATURATED ZONE =       -1097242.92       UNSATURATED ZONE =          -8449.36
       SATURATED ZONE =        -662918.60         SATURATED ZONE =          -2846.25

 OVERALL BUDGET ERROR =          -6854.44           BUDGET ERROR =             21.79


  PERCENT DISCREPANCY =             -0.05    PERCENT DISCREPANCY =              0.03



1
 SUMMARY VOLUMETRIC BUDGET FOR GSFLOW 
 DATE: 03 10 1981              CUMULATIVE TIME STEP:     161
 MODFLOW STRESS PERIOD      2     CURRENT TIME STEP:     161     ITERATIONS:      11

 -----------------------------------------------------------------------------------

   CUMULATIVE VOLUMES               L**3   RATES FOR THIS TIME STEP           L**3/T
   ------------------                      ------------------------

                                     IN                                         IN
                                     --                                         --
        PRECIPITATION =        1.3493D+07          PRECIPITATION =                  
           STREAMFLOW =                               STREAMFLOW =                  
     GW BOUNDARY FLOW =                         GW BOUNDARY FLOW =                  


                                    OUT                                        OUT
                                    ---                                        ---
   EVAPOTRANSPIRATION =        4422897.87     EVAPOTRANSPIRATION =          67192.35
           STREAMFLOW =        3501765.24             STREAMFLOW =          40122.36
     GW BOUNDARY FLOW =         104724.75       GW BOUNDARY FLOW =            652.68

   INFLOWS - OUTFLOWS =        5463553.29     INFLOWS - OUTFLOWS =        -107967.38
             --------                                   --------

 TOTAL STORAGE CHANGE =        5470303.97         STORAGE CHANGE =        -107980.40
       --------------                             --------------
         LAND SURFACE =        4665498.39           LAND SURFACE =        -147188.93
            SOIL ZONE =        2572666.22              SOIL ZONE =          24783.05
     UNSATURATED ZONE =       -1086779.21       UNSATURATED ZONE =          15923.86
       SATURATED ZONE =        -681081.43         SATURATED ZONE =          -1498.38

 OVERALL BUDGET ERROR =          -6750.68           BUDGET ERROR =             13.02


  PERCENT DISCREPANCY =             -0.05    PERCENT DISCREPANCY =              0.01



1
 SUMMARY VOLUMETRIC BUDGET FOR GSFLOW 
 DATE: 03 17 1981              CUMULATIVE TIME STEP:     168
 MODFLOW STRESS PERIOD      2     CURRENT TIME STEP:     168     ITERATIONS:       9

 -----------------------------------------------------------------------------------

   CUMULATIVE VOLUMES               L**3   RATES FOR THIS TIME STEP           L**3/T
   ------------------                      ------------------------

                                     IN                                         IN
                                     --                                         --
        PRECIPITATION =        1.3744D+07          PRECIPITATION =                  
           STREAMFLOW =                               STREAMFLOW =                  
     GW BOUNDARY FLOW =                         GW BOUNDARY FLOW =                  


                                    OUT                                        OUT
                                    ---                                        ---
   EVAPOTRANSPIRATION =        4739570.55     EVAPOTRANSPIRATION =          33262.65
           STREAMFLOW =        3717411.64             STREAMFLOW =          23495.11
     GW BOUNDARY FLOW =         109290.79       GW BOUNDARY FLOW =            651.76

   INFLOWS - OUTFLOWS =        5178217.90     INFLOWS - OUTFLOWS =         -57409.51
             --------                                   --------

 TOTAL STORAGE CHANGE =        5184863.59         STORAGE CHANGE =         -57417.33
       --------------                             --------------
         LAND SURFACE =        4532338.77           LAND SURFACE =         -32994.50
            SOIL ZONE =        2436860.15              SOIL ZONE =          -4996.39
     UNSATURATED ZONE =       -1080723.69       UNSATURATED ZONE =         -14319.85
       SATURATED ZONE =        -703611.63         SATURATED ZONE =          -5106.59

 OVERALL BUDGET ERROR =          -6645.69           BUDGET ERROR =              7.82


  PERCENT DISCREPANCY =             -0.05    PERCENT DISCREPANCY =              0.01



1
 SUMMARY VOLUMETRIC BUDGET FOR GSFLOW 
 DATE: 03 24 1981              CUMULATIVE TIME STEP:     175
 MODFLOW STRESS PERIOD      2     CURRENT TIME STEP:     175     ITERATIONS:      10

 -----------------------------------------------------------------------------------

   CUMULATIVE VOLUMES               L**3   RATES FOR THIS TIME STEP           L**3/T
   ------------------                      ------------------------

                                     IN                                         IN
                                     --                                         --
        PRECIPITATION =        1.4367D+07          PRECIPITATION =                  
           STREAMFLOW =                               STREAMFLOW =                  
     GW BOUNDARY FLOW =                         GW BOUNDARY FLOW =                  


                                    OUT                                        OUT
                                    ---                                        ---
   EVAPOTRANSPIRATION =        5059393.83     EVAPOTRANSPIRATION =          80764.17
           STREAMFLOW =        3881243.70             STREAMFLOW =          24913.34
     GW BOUNDARY FLOW =         113850.15       GW BOUNDARY FLOW =            651.24

   INFLOWS - OUTFLOWS =        5312257.84     INFLOWS - OUTFLOWS =        -106328.75
             --------                                   --------

 TOTAL STORAGE CHANGE =        5318919.73         STORAGE CHANGE =        -106331.67
       --------------                             --------------
         LAND SURFACE =        4882235.57           LAND SURFACE =         -56598.13
            SOIL ZONE =        2338687.81              SOIL ZONE =         -38015.93
     UNSATURATED ZONE =       -1158403.21       UNSATURATED ZONE =          -5795.69
       SATURATED ZONE =        -743600.45         SATURATED ZONE =          -5921.91

 OVERALL BUDGET ERROR =          -6661.89           BUDGET ERROR =              2.91


  PERCENT DISCREPANCY =             -0.05    PERCENT DISCREPANCY =              0.00



1
 SUMMARY VOLUMETRIC BUDGET FOR GSFLOW 
 DATE: 03 31 1981              CUMULATIVE TIME STEP:     182
 MODFLOW STRESS PERIOD      2     CURRENT TIME STEP:     182     ITERATIONS:      12

 -----------------------------------------------------------------------------------

   CUMULATIVE VOLUMES               L**3   RATES FOR THIS TIME STEP           L**3/T
   ------------------                      ------------------------

                                     IN                                         IN
                                     --                                         --
        PRECIPITATION =        1.5777D+07          PRECIPITATION =                  
           STREAMFLOW =                               STREAMFLOW =                  
     GW BOUNDARY FLOW =                         GW BOUNDARY FLOW =                  


                                    OUT                                        OUT
                                    ---                                        ---
   EVAPOTRANSPIRATION =        5447567.12     EVAPOTRANSPIRATION =          42424.06
           STREAMFLOW =        4328002.50             STREAMFLOW =          33524.79
     GW BOUNDARY FLOW =         118428.38       GW BOUNDARY FLOW =            653.13

   INFLOWS - OUTFLOWS =        5882749.98     INFLOWS - OUTFLOWS =         -76601.98
             --------                                   --------

 TOTAL STORAGE CHANGE =        5889319.15         STORAGE CHANGE =         -76623.24
       --------------                             --------------
         LAND SURFACE =        5101875.85           LAND SURFACE =         -42987.31
            SOIL ZONE =        2505169.34              SOIL ZONE =         -32445.40
     UNSATURATED ZONE =        -968824.40       UNSATURATED ZONE =           1203.33
       SATURATED ZONE =        -748901.65         SATURATED ZONE =          -2393.86

 OVERALL BUDGET ERROR =          -6569.17           BUDGET ERROR =             21.26


  PERCENT DISCREPANCY =             -0.04    PERCENT DISCREPANCY =              0.03



1
 SUMMARY VOLUMETRIC BUDGET FOR GSFLOW 
 DATE: 04 07 1981              CUMULATIVE TIME STEP:     189
 MODFLOW STRESS PERIOD      2     CURRENT TIME STEP:     189     ITERATIONS:      10

 -----------------------------------------------------------------------------------

   CUMULATIVE VOLUMES               L**3   RATES FOR THIS TIME STEP           L**3/T
   ------------------                      ------------------------

                                     IN                                         IN
                                     --                                         --
        PRECIPITATION =        1.6121D+07          PRECIPITATION =                  
           STREAMFLOW =                               STREAMFLOW =                  
     GW BOUNDARY FLOW =                         GW BOUNDARY FLOW =                  


                                    OUT                                        OUT
                                    ---                                        ---
   EVAPOTRANSPIRATION =        6042015.93     EVAPOTRANSPIRATION =          97287.85
           STREAMFLOW =        4621816.46             STREAMFLOW =          42006.88
     GW BOUNDARY FLOW =         123001.21       GW BOUNDARY FLOW =            653.54

   INFLOWS - OUTFLOWS =        5334634.01     INFLOWS - OUTFLOWS =        -139948.27
             --------                                   --------

 TOTAL STORAGE CHANGE =        5341076.20         STORAGE CHANGE =        -139969.49
       --------------                             --------------
         LAND SURFACE =        4536824.58           LAND SURFACE =        -138203.79
            SOIL ZONE =        2466622.31              SOIL ZONE =         -11846.70
     UNSATURATED ZONE =        -904148.57       UNSATURATED ZONE =          10919.91
       SATURATED ZONE =        -758222.12         SATURATED ZONE =           -838.90

 OVERALL BUDGET ERROR =          -6442.19           BUDGET ERROR =             21.21


  PERCENT DISCREPANCY =             -0.04    PERCENT DISCREPANCY =              0.02



1
 SUMMARY VOLUMETRIC BUDGET FOR GSFLOW 
 DATE: 04 14 1981              CUMULATIVE TIME STEP:     196
 MODFLOW STRESS PERIOD      2     CURRENT TIME STEP:     196     ITERATIONS:      12

 -----------------------------------------------------------------------------------

   CUMULATIVE VOLUMES               L**3   RATES FOR THIS TIME STEP           L**3/T
   ------------------                      ------------------------

                                     IN                                         IN
                                     --                                         --
        PRECIPITATION =        1.6121D+07          PRECIPITATION =                  
           STREAMFLOW =                               STREAMFLOW =                  
     GW BOUNDARY FLOW =                         GW BOUNDARY FLOW =                  


                                    OUT                                        OUT
                                    ---                                        ---
   EVAPOTRANSPIRATION =        6905445.09     EVAPOTRANSPIRATION =         187136.52
           STREAMFLOW =        4958393.00             STREAMFLOW =          60771.00
     GW BOUNDARY FLOW =         127576.80       GW BOUNDARY FLOW =            653.95

   INFLOWS - OUTFLOWS =        4130052.72     INFLOWS - OUTFLOWS =        -248561.46
             --------                                   --------

 TOTAL STORAGE CHANGE =        4136329.74         STORAGE CHANGE =        -248587.39
       --------------                             --------------
         LAND SURFACE =        3249108.93           LAND SURFACE =        -276414.16
            SOIL ZONE =        2438267.57              SOIL ZONE =           -705.25
     UNSATURATED ZONE =        -792058.46       UNSATURATED ZONE =          26842.13
       SATURATED ZONE =        -758988.30         SATURATED ZONE =           1689.89

 OVERALL BUDGET ERROR =          -6277.02           BUDGET ERROR =             25.93


  PERCENT DISCREPANCY =             -0.04    PERCENT DISCREPANCY =              0.01



1
 SUMMARY VOLUMETRIC BUDGET FOR GSFLOW 
 DATE: 04 21 1981              CUMULATIVE TIME STEP:     203
 MODFLOW STRESS PERIOD      2     CURRENT TIME STEP:     203     ITERATIONS:      14

 -----------------------------------------------------------------------------------

   CUMULATIVE VOLUMES               L**3   RATES FOR THIS TIME STEP           L**3/T
   ------------------                      ------------------------

                                     IN                                         IN
                                     --                                         --
        PRECIPITATION =        1.6310D+07          PRECIPITATION =                  
           STREAMFLOW =                               STREAMFLOW =                  
     GW BOUNDARY FLOW =                         GW BOUNDARY FLOW =                  


                                    OUT                                        OUT
                                    ---                                        ---
   EVAPOTRANSPIRATION =        7949845.23     EVAPOTRANSPIRATION =         153837.68
           STREAMFLOW =        5344444.78             STREAMFLOW =          53778.09
     GW BOUNDARY FLOW =         132151.09       GW BOUNDARY FLOW =            653.12

   INFLOWS - OUTFLOWS =        2883801.54     INFLOWS - OUTFLOWS =        -208268.89
             --------                                   --------

 TOTAL STORAGE CHANGE =        2889921.48         STORAGE CHANGE =        -208291.72
       --------------                             --------------
         LAND SURFACE =        1941586.43           LAND SURFACE =        -141315.80
            SOIL ZONE =        2324295.38              SOIL ZONE =         -93544.33
     UNSATURATED ZONE =        -633183.41       UNSATURATED ZONE =          23576.01
       SATURATED ZONE =        -742776.92         SATURATED ZONE =           2992.41

 OVERALL BUDGET ERROR =          -6119.94           BUDGET ERROR =             22.83


  PERCENT DISCREPANCY =             -0.04    PERCENT DISCREPANCY =              0.01



1
 SUMMARY VOLUMETRIC BUDGET FOR GSFLOW 
 DATE: 04 28 1981              CUMULATIVE TIME STEP:     210
 MODFLOW STRESS PERIOD      2     CURRENT TIME STEP:     210     ITERATIONS:      14

 -----------------------------------------------------------------------------------

   CUMULATIVE VOLUMES               L**3   RATES FOR THIS TIME STEP           L**3/T
   ------------------                      ------------------------

                                     IN                                         IN
                                     --                                         --
        PRECIPITATION =        1.6515D+07          PRECIPITATION =                  
           STREAMFLOW =                               STREAMFLOW =                  
     GW BOUNDARY FLOW =                         GW BOUNDARY FLOW =                  


                                    OUT                                        OUT
                                    ---                                        ---
   EVAPOTRANSPIRATION =        9208163.15     EVAPOTRANSPIRATION =         210370.55
           STREAMFLOW =        5603802.84             STREAMFLOW =          30319.78
     GW BOUNDARY FLOW =         136714.45       GW BOUNDARY FLOW =            650.98

   INFLOWS - OUTFLOWS =        1566752.45     INFLOWS - OUTFLOWS =        -241341.31
             --------                                   --------

 TOTAL STORAGE CHANGE =        1572701.26         STORAGE CHANGE =        -241364.96
       --------------                             --------------
         LAND SURFACE =        1047886.51           LAND SURFACE =        -108965.88
            SOIL ZONE =        1830746.95              SOIL ZONE =        -137887.75
     UNSATURATED ZONE =        -575531.28       UNSATURATED ZONE =           4021.78
       SATURATED ZONE =        -730400.93         SATURATED ZONE =           1466.89

 OVERALL BUDGET ERROR =          -5948.81           BUDGET ERROR =             23.65


  PERCENT DISCREPANCY =             -0.04    PERCENT DISCREPANCY =              0.01



1
 SUMMARY VOLUMETRIC BUDGET FOR GSFLOW 
 DATE: 05 05 1981              CUMULATIVE TIME STEP:     217
 MODFLOW STRESS PERIOD      2     CURRENT TIME STEP:     217     ITERATIONS:      14

 -----------------------------------------------------------------------------------

   CUMULATIVE VOLUMES               L**3   RATES FOR THIS TIME STEP           L**3/T
   ------------------                      ------------------------

                                     IN                                         IN
                                     --                                         --
        PRECIPITATION =        1.6515D+07          PRECIPITATION =                  
           STREAMFLOW =                               STREAMFLOW =                  
     GW BOUNDARY FLOW =                         GW BOUNDARY FLOW =                  


                                    OUT                                        OUT
                                    ---                                        ---
   EVAPOTRANSPIRATION =        1.0065D+07     EVAPOTRANSPIRATION =          46992.58
           STREAMFLOW =        5726237.55             STREAMFLOW =          11659.34
     GW BOUNDARY FLOW =         141263.20       GW BOUNDARY FLOW =            648.99

   INFLOWS - OUTFLOWS =         582780.20     INFLOWS - OUTFLOWS =         -59300.92
             --------                                   --------

 TOTAL STORAGE CHANGE =         588573.28         STORAGE CHANGE =         -59318.18
       --------------                             --------------
         LAND SURFACE =         583908.85           LAND SURFACE =         -19597.75
            SOIL ZONE =        1386149.74              SOIL ZONE =         -23389.45
     UNSATURATED ZONE =        -642383.32       UNSATURATED ZONE =         -14181.52
       SATURATED ZONE =        -739101.99         SATURATED ZONE =          -2149.46

 OVERALL BUDGET ERROR =          -5793.08           BUDGET ERROR =             17.27


  PERCENT DISCREPANCY =             -0.04    PERCENT DISCREPANCY =              0.03



1
 SUMMARY VOLUMETRIC BUDGET FOR GSFLOW 
 DATE: 05 12 1981              CUMULATIVE TIME STEP:     224
 MODFLOW STRESS PERIOD      2     CURRENT TIME STEP:     224     ITERATIONS:      12

 -----------------------------------------------------------------------------------

   CUMULATIVE VOLUMES               L**3   RATES FOR THIS TIME STEP           L**3/T
   ------------------                      ------------------------

                                     IN                                         IN
                                     --                                         --
        PRECIPITATION =        1.6515D+07          PRECIPITATION =                  
           STREAMFLOW =                               STREAMFLOW =                  
     GW BOUNDARY FLOW =                         GW BOUNDARY FLOW =                  


                                    OUT                                        OUT
                                    ---                                        ---
   EVAPOTRANSPIRATION =        1.0597D+07     EVAPOTRANSPIRATION =         102060.86
           STREAMFLOW =        5806955.85             STREAMFLOW =          12782.99
     GW BOUNDARY FLOW =         145803.14       GW BOUNDARY FLOW =            648.47

   INFLOWS - OUTFLOWS =         -34358.16     INFLOWS - OUTFLOWS =        -115492.32
             --------                                   --------

 TOTAL STORAGE CHANGE =         -28680.18         STORAGE CHANGE =        -115512.04
       --------------                             --------------
         LAND SURFACE =         364139.12           LAND SURFACE =         -39545.55
            SOIL ZONE =        1104131.02              SOIL ZONE =         -61281.10
     UNSATURATED ZONE =        -735179.42       UNSATURATED ZONE =         -10466.83
       SATURATED ZONE =        -761770.89         SATURATED ZONE =          -4218.56

 OVERALL BUDGET ERROR =          -5677.98           BUDGET ERROR =             19.73


  PERCENT DISCREPANCY =             -0.03    PERCENT DISCREPANCY =              0.02



1
 SUMMARY VOLUMETRIC BUDGET FOR GSFLOW 
 DATE: 05 19 1981              CUMULATIVE TIME STEP:     231
 MODFLOW STRESS PERIOD      2     CURRENT TIME STEP:     231     ITERATIONS:      19

 -----------------------------------------------------------------------------------

   CUMULATIVE VOLUMES               L**3   RATES FOR THIS TIME STEP           L**3/T
   ------------------                      ------------------------

                                     IN                                         IN
                                     --                                         --
        PRECIPITATION =        1.7837D+07          PRECIPITATION =         169045.43
           STREAMFLOW =                               STREAMFLOW =                  
     GW BOUNDARY FLOW =                         GW BOUNDARY FLOW =                  


                                    OUT                                        OUT
                                    ---                                        ---
   EVAPOTRANSPIRATION =        1.0943D+07     EVAPOTRANSPIRATION =          31098.89
           STREAMFLOW =        5961110.28             STREAMFLOW =          31713.10
     GW BOUNDARY FLOW =         150344.65       GW BOUNDARY FLOW =            649.97

   INFLOWS - OUTFLOWS =         782585.06     INFLOWS - OUTFLOWS =         105583.46
             --------                                   --------

 TOTAL STORAGE CHANGE =         788181.18         STORAGE CHANGE =         105574.99
       --------------                             --------------
         LAND SURFACE =         315733.71           LAND SURFACE =          16905.78
            SOIL ZONE =        2040540.75              SOIL ZONE =          86064.90
     UNSATURATED ZONE =        -772703.72       UNSATURATED ZONE =           6839.58
       SATURATED ZONE =        -795389.56         SATURATED ZONE =          -4235.27

 OVERALL BUDGET ERROR =          -5596.12           BUDGET ERROR =              8.48


  PERCENT DISCREPANCY =             -0.03    PERCENT DISCREPANCY =              0.01



1
 SUMMARY VOLUMETRIC BUDGET FOR GSFLOW 
 DATE: 05 26 1981              CUMULATIVE TIME STEP:     238
 MODFLOW STRESS PERIOD      2     CURRENT TIME STEP:     238     ITERATIONS:      14

 -----------------------------------------------------------------------------------

   CUMULATIVE VOLUMES               L**3   RATES FOR THIS TIME STEP           L**3/T
   ------------------                      ------------------------

                                     IN                                         IN
                                     --                                         --
        PRECIPITATION =        1.8252D+07          PRECIPITATION =         284303.67
           STREAMFLOW =                               STREAMFLOW =                  
     GW BOUNDARY FLOW =                         GW BOUNDARY FLOW =                  


                                    OUT                                        OUT
                                    ---                                        ---
   EVAPOTRANSPIRATION =        1.1738D+07     EVAPOTRANSPIRATION =         126247.52
           STREAMFLOW =        6098500.55             STREAMFLOW =          24073.03
     GW BOUNDARY FLOW =         154888.84       GW BOUNDARY FLOW =            648.95

   INFLOWS - OUTFLOWS =         260834.93     INFLOWS - OUTFLOWS =         133334.17
             --------                                   --------

 TOTAL STORAGE CHANGE =         266355.28         STORAGE CHANGE =         133321.51
       --------------                             --------------
         LAND SURFACE =         197572.68           LAND SURFACE =         -13397.86
            SOIL ZONE =        1704534.95              SOIL ZONE =         158525.80
     UNSATURATED ZONE =        -799676.83       UNSATURATED ZONE =          -6170.01
       SATURATED ZONE =        -836075.52         SATURATED ZONE =          -5636.42

 OVERALL BUDGET ERROR =          -5520.35           BUDGET ERROR =             12.66


  PERCENT DISCREPANCY =             -0.03    PERCENT DISCREPANCY =              0.00



1
 SUMMARY VOLUMETRIC BUDGET FOR GSFLOW 
 DATE: 06 02 1981              CUMULATIVE TIME STEP:     245
 MODFLOW STRESS PERIOD      2     CURRENT TIME STEP:     245     ITERATIONS:      17

 -----------------------------------------------------------------------------------

   CUMULATIVE VOLUMES               L**3   RATES FOR THIS TIME STEP           L**3/T
   ------------------                      ------------------------

                                     IN                                         IN
                                     --                                         --
        PRECIPITATION =        1.8318D+07          PRECIPITATION =          50869.96
           STREAMFLOW =                               STREAMFLOW =                  
     GW BOUNDARY FLOW =                         GW BOUNDARY FLOW =                  


                                    OUT                                        OUT
                                    ---                                        ---
   EVAPOTRANSPIRATION =        1.2568D+07     EVAPOTRANSPIRATION =          66221.14
           STREAMFLOW =        6184405.09             STREAMFLOW =           9090.83
     GW BOUNDARY FLOW =         159426.59       GW BOUNDARY FLOW =            647.71

   INFLOWS - OUTFLOWS =        -593576.45     INFLOWS - OUTFLOWS =         -25089.72
             --------                                   --------

 TOTAL STORAGE CHANGE =        -588104.61         STORAGE CHANGE =         -25095.23
       --------------                             --------------
         LAND SURFACE =         119474.97           LAND SURFACE =          25659.25
            SOIL ZONE =        1056868.19              SOIL ZONE =         -30719.75
     UNSATURATED ZONE =        -876789.81       UNSATURATED ZONE =         -12169.12
       SATURATED ZONE =        -887657.97         SATURATED ZONE =          -7865.62

 OVERALL BUDGET ERROR =          -5471.84           BUDGET ERROR =              5.51


  PERCENT DISCREPANCY =             -0.03    PERCENT DISCREPANCY =              0.01



1
 SUMMARY VOLUMETRIC BUDGET FOR GSFLOW 
 DATE: 06 09 1981              CUMULATIVE TIME STEP:     252
 MODFLOW STRESS PERIOD      2     CURRENT TIME STEP:     252     ITERATIONS:      15

 -----------------------------------------------------------------------------------

   CUMULATIVE VOLUMES               L**3   RATES FOR THIS TIME STEP           L**3/T
   ------------------                      ------------------------

                                     IN                                         IN
                                     --                                         --
        PRECIPITATION =        1.8318D+07          PRECIPITATION =                  
           STREAMFLOW =                               STREAMFLOW =                  
     GW BOUNDARY FLOW =                         GW BOUNDARY FLOW =                  


                                    OUT                                        OUT
                                    ---                                        ---
   EVAPOTRANSPIRATION =        1.3121D+07     EVAPOTRANSPIRATION =          54986.99
           STREAMFLOW =        6239104.03             STREAMFLOW =           7195.15
     GW BOUNDARY FLOW =         163957.98       GW BOUNDARY FLOW =            647.13

   INFLOWS - OUTFLOWS =       -1205672.48     INFLOWS - OUTFLOWS =         -62829.26
             --------                                   --------

 TOTAL STORAGE CHANGE =       -1200249.29         STORAGE CHANGE =         -62833.17
       --------------                             --------------
         LAND SURFACE =          39669.52           LAND SURFACE =          -4382.74
            SOIL ZONE =         665946.22              SOIL ZONE =         -38010.75
     UNSATURATED ZONE =        -958871.51       UNSATURATED ZONE =         -11758.89
       SATURATED ZONE =        -946993.52         SATURATED ZONE =          -8680.79

 OVERALL BUDGET ERROR =          -5423.19           BUDGET ERROR =              3.90


  PERCENT DISCREPANCY =             -0.03    PERCENT DISCREPANCY =              0.01



1
 SUMMARY VOLUMETRIC BUDGET FOR GSFLOW 
 DATE: 06 16 1981              CUMULATIVE TIME STEP:     259
 MODFLOW STRESS PERIOD      2     CURRENT TIME STEP:     259     ITERATIONS:      14

 -----------------------------------------------------------------------------------

   CUMULATIVE VOLUMES               L**3   RATES FOR THIS TIME STEP           L**3/T
   ------------------                      ------------------------

                                     IN                                         IN
                                     --                                         --
        PRECIPITATION =        1.8318D+07          PRECIPITATION =                  
           STREAMFLOW =                               STREAMFLOW =                  
     GW BOUNDARY FLOW =                         GW BOUNDARY FLOW =                  


                                    OUT                                        OUT
                                    ---                                        ---
   EVAPOTRANSPIRATION =        1.3331D+07     EVAPOTRANSPIRATION =          48829.14
           STREAMFLOW =        6286657.74             STREAMFLOW =           6646.61
     GW BOUNDARY FLOW =         168486.72       GW BOUNDARY FLOW =            646.86

   INFLOWS - OUTFLOWS =       -1467616.19     INFLOWS - OUTFLOWS =         -56122.61
             --------                                   --------

 TOTAL STORAGE CHANGE =       -1462236.97         STORAGE CHANGE =         -56130.66
       --------------                             --------------
         LAND SURFACE =          25589.68           LAND SURFACE =          -3042.77
            SOIL ZONE =         567250.01              SOIL ZONE =         -31480.63
     UNSATURATED ZONE =       -1044799.44       UNSATURATED ZONE =         -12532.85
       SATURATED ZONE =       -1010277.21         SATURATED ZONE =          -9074.41

 OVERALL BUDGET ERROR =          -5379.23           BUDGET ERROR =              8.04


  PERCENT DISCREPANCY =             -0.03    PERCENT DISCREPANCY =              0.01



1
 SUMMARY VOLUMETRIC BUDGET FOR GSFLOW 
 DATE: 06 23 1981              CUMULATIVE TIME STEP:     266
 MODFLOW STRESS PERIOD      2     CURRENT TIME STEP:     266     ITERATIONS:      18

 -----------------------------------------------------------------------------------

   CUMULATIVE VOLUMES               L**3   RATES FOR THIS TIME STEP           L**3/T
   ------------------                      ------------------------

                                     IN                                         IN
                                     --                                         --
        PRECIPITATION =        1.8318D+07          PRECIPITATION =                  
           STREAMFLOW =                               STREAMFLOW =                  
     GW BOUNDARY FLOW =                         GW BOUNDARY FLOW =                  


                                    OUT                                        OUT
                                    ---                                        ---
   EVAPOTRANSPIRATION =        1.3671D+07     EVAPOTRANSPIRATION =          40028.56
           STREAMFLOW =        6330878.31             STREAMFLOW =           6067.59
     GW BOUNDARY FLOW =         173013.88       GW BOUNDARY FLOW =            646.64

   INFLOWS - OUTFLOWS =       -1856251.77     INFLOWS - OUTFLOWS =         -46742.79
             --------                                   --------

 TOTAL STORAGE CHANGE =       -1850930.94         STORAGE CHANGE =         -46748.66
       --------------                             --------------
         LAND SURFACE =           6959.28           LAND SURFACE =          -1578.51
            SOIL ZONE =         349717.79              SOIL ZONE =         -23455.32
     UNSATURATED ZONE =       -1131154.71       UNSATURATED ZONE =         -12075.14
       SATURATED ZONE =       -1076453.29         SATURATED ZONE =          -9639.68

 OVERALL BUDGET ERROR =          -5320.84           BUDGET ERROR =              5.87


  PERCENT DISCREPANCY =             -0.03    PERCENT DISCREPANCY =              0.01



1
 SUMMARY VOLUMETRIC BUDGET FOR GSFLOW 
 DATE: 06 30 1981              CUMULATIVE TIME STEP:     273
 MODFLOW STRESS PERIOD      2     CURRENT TIME STEP:     273     ITERATIONS:      14

 -----------------------------------------------------------------------------------

   CUMULATIVE VOLUMES               L**3   RATES FOR THIS TIME STEP           L**3/T
   ------------------                      ------------------------

                                     IN                                         IN
[...]
                                    ---                                        ---
   EVAPOTRANSPIRATION =        2.8443D+08     EVAPOTRANSPIRATION =          48914.68
           STREAMFLOW =        1.8427D+08             STREAMFLOW =           7337.48
     GW BOUNDARY FLOW =        3736447.42       GW BOUNDARY FLOW =            651.11

   INFLOWS - OUTFLOWS =       -7373605.61     INFLOWS - OUTFLOWS =         -56903.27
             --------                                   --------

 TOTAL STORAGE CHANGE =       -7345280.42         STORAGE CHANGE =         -56930.72
       --------------                             --------------
         LAND SURFACE =         214963.45           LAND SURFACE =         -10645.32
            SOIL ZONE =         324944.94              SOIL ZONE =         -24890.50
     UNSATURATED ZONE =        5426321.52       UNSATURATED ZONE =         -28106.55
       SATURATED ZONE =       -1.3312D+07         SATURATED ZONE =           6711.66

 OVERALL BUDGET ERROR =         -28325.19           BUDGET ERROR =             27.45


  PERCENT DISCREPANCY =             -0.01    PERCENT DISCREPANCY =              0.05



1
 SUMMARY VOLUMETRIC BUDGET FOR GSFLOW 
 DATE: 07 30 1996              CUMULATIVE TIME STEP:    5782
 MODFLOW STRESS PERIOD      2     CURRENT TIME STEP:    5782     ITERATIONS:      15

 -----------------------------------------------------------------------------------

   CUMULATIVE VOLUMES               L**3   RATES FOR THIS TIME STEP           L**3/T
   ------------------                      ------------------------

                                     IN                                         IN
                                     --                                         --
        PRECIPITATION =        4.6511D+08          PRECIPITATION =                  
           STREAMFLOW =                               STREAMFLOW =                  
     GW BOUNDARY FLOW =                         GW BOUNDARY FLOW =                  


                                    OUT                                        OUT
                                    ---                                        ---
   EVAPOTRANSPIRATION =        2.8474D+08     EVAPOTRANSPIRATION =          32474.72
           STREAMFLOW =        1.8432D+08             STREAMFLOW =           7037.49
     GW BOUNDARY FLOW =        3741003.40       GW BOUNDARY FLOW =            650.68

   INFLOWS - OUTFLOWS =       -7685838.97     INFLOWS - OUTFLOWS =         -40162.89
             --------                                   --------

 TOTAL STORAGE CHANGE =       -7657702.21         STORAGE CHANGE =         -40189.55
       --------------                             --------------
         LAND SURFACE =         152309.39           LAND SURFACE =          -7555.65
            SOIL ZONE =         225850.78              SOIL ZONE =         -11209.72
     UNSATURATED ZONE =        5228682.19       UNSATURATED ZONE =         -27754.74
       SATURATED ZONE =       -1.3265D+07         SATURATED ZONE =           6330.56

 OVERALL BUDGET ERROR =         -28136.76           BUDGET ERROR =             26.65


  PERCENT DISCREPANCY =             -0.01    PERCENT DISCREPANCY =              0.07



1
 SUMMARY VOLUMETRIC BUDGET FOR GSFLOW 
 DATE: 08 06 1996              CUMULATIVE TIME STEP:    5789
 MODFLOW STRESS PERIOD      2     CURRENT TIME STEP:    5789     ITERATIONS:      14

 -----------------------------------------------------------------------------------

   CUMULATIVE VOLUMES               L**3   RATES FOR THIS TIME STEP           L**3/T
   ------------------                      ------------------------

                                     IN                                         IN
                                     --                                         --
        PRECIPITATION =        4.6511D+08          PRECIPITATION =                  
           STREAMFLOW =                               STREAMFLOW =                  
     GW BOUNDARY FLOW =                         GW BOUNDARY FLOW =                  


                                    OUT                                        OUT
                                    ---                                        ---
   EVAPOTRANSPIRATION =        2.8492D+08     EVAPOTRANSPIRATION =          24512.33
           STREAMFLOW =        1.8437D+08             STREAMFLOW =           6755.53
     GW BOUNDARY FLOW =        3745557.86       GW BOUNDARY FLOW =            650.58

   INFLOWS - OUTFLOWS =       -7922141.48     INFLOWS - OUTFLOWS =         -31918.44
             --------                                   --------

 TOTAL STORAGE CHANGE =       -7894186.02         STORAGE CHANGE =         -31948.10
       --------------                             --------------
         LAND SURFACE =         111776.46           LAND SURFACE =          -5017.65
            SOIL ZONE =         178536.32              SOIL ZONE =          -5830.92
     UNSATURATED ZONE =        5039557.58       UNSATURATED ZONE =         -26359.73
       SATURATED ZONE =       -1.3224D+07         SATURATED ZONE =           5260.20

 OVERALL BUDGET ERROR =         -27955.47           BUDGET ERROR =             29.65


  PERCENT DISCREPANCY =             -0.01    PERCENT DISCREPANCY =              0.09



1
 SUMMARY VOLUMETRIC BUDGET FOR GSFLOW 
 DATE: 08 13 1996              CUMULATIVE TIME STEP:    5796
 MODFLOW STRESS PERIOD      2     CURRENT TIME STEP:    5796     ITERATIONS:      15

 -----------------------------------------------------------------------------------

   CUMULATIVE VOLUMES               L**3   RATES FOR THIS TIME STEP           L**3/T
   ------------------                      ------------------------

                                     IN                                         IN
                                     --                                         --
        PRECIPITATION =        4.6531D+08          PRECIPITATION =          54454.08
           STREAMFLOW =                               STREAMFLOW =                  
     GW BOUNDARY FLOW =                         GW BOUNDARY FLOW =                  


                                    OUT                                        OUT
                                    ---                                        ---
   EVAPOTRANSPIRATION =        2.8513D+08     EVAPOTRANSPIRATION =          36737.40
           STREAMFLOW =        1.8442D+08             STREAMFLOW =           7958.60
     GW BOUNDARY FLOW =        3750111.42       GW BOUNDARY FLOW =            650.52

   INFLOWS - OUTFLOWS =       -7987866.86     INFLOWS - OUTFLOWS =           9107.56
             --------                                   --------

 TOTAL STORAGE CHANGE =       -7960053.60         STORAGE CHANGE =           9083.36
       --------------                             --------------
         LAND SURFACE =         105220.94           LAND SURFACE =          -5194.35
            SOIL ZONE =         265310.61              SOIL ZONE =          34960.28
     UNSATURATED ZONE =        4859021.32       UNSATURATED ZONE =         -25177.28
       SATURATED ZONE =       -1.3190D+07         SATURATED ZONE =           4494.70

 OVERALL BUDGET ERROR =         -27813.27           BUDGET ERROR =             24.21


  PERCENT DISCREPANCY =             -0.01    PERCENT DISCREPANCY =              0.04



1
 SUMMARY VOLUMETRIC BUDGET FOR GSFLOW 
 DATE: 08 20 1996              CUMULATIVE TIME STEP:    5803
 MODFLOW STRESS PERIOD      2     CURRENT TIME STEP:    5803     ITERATIONS:      14

 -----------------------------------------------------------------------------------

   CUMULATIVE VOLUMES               L**3   RATES FOR THIS TIME STEP           L**3/T
   ------------------                      ------------------------

                                     IN                                         IN
                                     --                                         --
        PRECIPITATION =        4.6531D+08          PRECIPITATION =                  
           STREAMFLOW =                               STREAMFLOW =                  
     GW BOUNDARY FLOW =                         GW BOUNDARY FLOW =                  


                                    OUT                                        OUT
                                    ---                                        ---
   EVAPOTRANSPIRATION =        2.8535D+08     EVAPOTRANSPIRATION =          18471.59
           STREAMFLOW =        1.8446D+08             STREAMFLOW =           6510.64
     GW BOUNDARY FLOW =        3754663.33       GW BOUNDARY FLOW =            650.09

   INFLOWS - OUTFLOWS =       -8258433.81     INFLOWS - OUTFLOWS =         -25632.32
             --------                                   --------

 TOTAL STORAGE CHANGE =       -8230770.40         STORAGE CHANGE =         -25650.90
       --------------                             --------------
         LAND SURFACE =          44442.31           LAND SURFACE =          -2851.34
            SOIL ZONE =         199845.30              SOIL ZONE =          -2277.74
     UNSATURATED ZONE =        4687694.95       UNSATURATED ZONE =         -23988.49
       SATURATED ZONE =       -1.3163D+07         SATURATED ZONE =           3466.67

 OVERALL BUDGET ERROR =         -27663.41           BUDGET ERROR =             18.58


  PERCENT DISCREPANCY =             -0.01    PERCENT DISCREPANCY =              0.07



1
 SUMMARY VOLUMETRIC BUDGET FOR GSFLOW 
 DATE: 08 27 1996              CUMULATIVE TIME STEP:    5810
 MODFLOW STRESS PERIOD      2     CURRENT TIME STEP:    5810     ITERATIONS:      13

 -----------------------------------------------------------------------------------

   CUMULATIVE VOLUMES               L**3   RATES FOR THIS TIME STEP           L**3/T
   ------------------                      ------------------------

                                     IN                                         IN
                                     --                                         --
        PRECIPITATION =        4.6531D+08          PRECIPITATION =                  
           STREAMFLOW =                               STREAMFLOW =                  
     GW BOUNDARY FLOW =                         GW BOUNDARY FLOW =                  


                                    OUT                                        OUT
                                    ---                                        ---
   EVAPOTRANSPIRATION =        2.8551D+08     EVAPOTRANSPIRATION =          17409.04
           STREAMFLOW =        1.8451D+08             STREAMFLOW =           6345.70
     GW BOUNDARY FLOW =        3759212.39       GW BOUNDARY FLOW =            649.70

   INFLOWS - OUTFLOWS =       -8466612.33     INFLOWS - OUTFLOWS =         -24404.44
             --------                                   --------

 TOTAL STORAGE CHANGE =       -8439139.04         STORAGE CHANGE =         -24437.15
       --------------                             --------------
         LAND SURFACE =          21435.24           LAND SURFACE =          -2621.72
            SOIL ZONE =         157149.19              SOIL ZONE =          -1537.93
     UNSATURATED ZONE =        4525666.27       UNSATURATED ZONE =         -22680.58
       SATURATED ZONE =       -1.3143D+07         SATURATED ZONE =           2403.08

 OVERALL BUDGET ERROR =         -27473.29           BUDGET ERROR =             32.71


  PERCENT DISCREPANCY =             -0.01    PERCENT DISCREPANCY =              0.13



1
 SUMMARY VOLUMETRIC BUDGET FOR GSFLOW 
 DATE: 09 03 1996              CUMULATIVE TIME STEP:    5817
 MODFLOW STRESS PERIOD      2     CURRENT TIME STEP:    5817     ITERATIONS:      13

 -----------------------------------------------------------------------------------

   CUMULATIVE VOLUMES               L**3   RATES FOR THIS TIME STEP           L**3/T
   ------------------                      ------------------------

                                     IN                                         IN
                                     --                                         --
        PRECIPITATION =        4.6531D+08          PRECIPITATION =                  
           STREAMFLOW =                               STREAMFLOW =                  
     GW BOUNDARY FLOW =                         GW BOUNDARY FLOW =                  


                                    OUT                                        OUT
                                    ---                                        ---
   EVAPOTRANSPIRATION =        2.8563D+08     EVAPOTRANSPIRATION =          15301.05
           STREAMFLOW =        1.8455D+08             STREAMFLOW =           6231.95
     GW BOUNDARY FLOW =        3763758.60       GW BOUNDARY FLOW =            649.28

   INFLOWS - OUTFLOWS =       -8634528.43     INFLOWS - OUTFLOWS =         -22182.28
             --------                                   --------

 TOTAL STORAGE CHANGE =       -8607280.02         STORAGE CHANGE =         -22212.32
       --------------                             --------------
         LAND SURFACE =           7240.32           LAND SURFACE =          -1278.90
            SOIL ZONE =         144175.05              SOIL ZONE =           -897.95
     UNSATURATED ZONE =        4372057.38       UNSATURATED ZONE =         -21699.40
       SATURATED ZONE =       -1.3131D+07         SATURATED ZONE =           1663.93

 OVERALL BUDGET ERROR =         -27248.41           BUDGET ERROR =             30.04


  PERCENT DISCREPANCY =             -0.01    PERCENT DISCREPANCY =              0.14



1
 SUMMARY VOLUMETRIC BUDGET FOR GSFLOW 
 DATE: 09 10 1996              CUMULATIVE TIME STEP:    5824
 MODFLOW STRESS PERIOD      2     CURRENT TIME STEP:    5824     ITERATIONS:      13

 -----------------------------------------------------------------------------------

   CUMULATIVE VOLUMES               L**3   RATES FOR THIS TIME STEP           L**3/T
   ------------------                      ------------------------

                                     IN                                         IN
                                     --                                         --
        PRECIPITATION =        4.6531D+08          PRECIPITATION =                  
           STREAMFLOW =                               STREAMFLOW =                  
     GW BOUNDARY FLOW =                         GW BOUNDARY FLOW =                  


                                    OUT                                        OUT
                                    ---                                        ---
   EVAPOTRANSPIRATION =        2.8572D+08     EVAPOTRANSPIRATION =          13649.12
           STREAMFLOW =        1.8460D+08             STREAMFLOW =           6125.09
     GW BOUNDARY FLOW =        3768302.01       GW BOUNDARY FLOW =            648.88

   INFLOWS - OUTFLOWS =       -8770967.94     INFLOWS - OUTFLOWS =         -20423.09
             --------                                   --------

 TOTAL STORAGE CHANGE =       -8743944.07         STORAGE CHANGE =         -20451.95
       --------------                             --------------
         LAND SURFACE =           2510.71           LAND SURFACE =           -704.62
            SOIL ZONE =         151592.43              SOIL ZONE =             61.39
     UNSATURATED ZONE =        4222367.77       UNSATURATED ZONE =         -21026.72
       SATURATED ZONE =       -1.3120D+07         SATURATED ZONE =           1218.01

 OVERALL BUDGET ERROR =         -27023.87           BUDGET ERROR =             28.86


  PERCENT DISCREPANCY =             -0.01    PERCENT DISCREPANCY =              0.14



1
 SUMMARY VOLUMETRIC BUDGET FOR GSFLOW 
 DATE: 09 17 1996              CUMULATIVE TIME STEP:    5831
 MODFLOW STRESS PERIOD      2     CURRENT TIME STEP:    5831     ITERATIONS:      12

 -----------------------------------------------------------------------------------

   CUMULATIVE VOLUMES               L**3   RATES FOR THIS TIME STEP           L**3/T
   ------------------                      ------------------------

                                     IN                                         IN
                                     --                                         --
        PRECIPITATION =        4.6637D+08          PRECIPITATION =                  
           STREAMFLOW =                               STREAMFLOW =                  
     GW BOUNDARY FLOW =                         GW BOUNDARY FLOW =                  


                                    OUT                                        OUT
                                    ---                                        ---
   EVAPOTRANSPIRATION =        2.8589D+08     EVAPOTRANSPIRATION =          52774.70
           STREAMFLOW =        1.8466D+08             STREAMFLOW =          10303.85
     GW BOUNDARY FLOW =        3772844.60       GW BOUNDARY FLOW =            649.28

   INFLOWS - OUTFLOWS =       -7962827.38     INFLOWS - OUTFLOWS =         -63727.84
             --------                                   --------

 TOTAL STORAGE CHANGE =       -7936067.36         STORAGE CHANGE =         -63761.29
       --------------                             --------------
         LAND SURFACE =            882.14           LAND SURFACE =         -33826.70
            SOIL ZONE =        1096855.22              SOIL ZONE =         -10361.65
     UNSATURATED ZONE =        4077688.98       UNSATURATED ZONE =         -20311.74
       SATURATED ZONE =       -1.3111D+07         SATURATED ZONE =            738.80

 OVERALL BUDGET ERROR =         -26760.02           BUDGET ERROR =             33.45


  PERCENT DISCREPANCY =             -0.01    PERCENT DISCREPANCY =              0.05



1
 SUMMARY VOLUMETRIC BUDGET FOR GSFLOW 
 DATE: 09 24 1996              CUMULATIVE TIME STEP:    5838
 MODFLOW STRESS PERIOD      2     CURRENT TIME STEP:    5838     ITERATIONS:      12

 -----------------------------------------------------------------------------------

   CUMULATIVE VOLUMES               L**3   RATES FOR THIS TIME STEP           L**3/T
   ------------------                      ------------------------

                                     IN                                         IN
                                     --                                         --
        PRECIPITATION =        4.6637D+08          PRECIPITATION =                  
           STREAMFLOW =                               STREAMFLOW =                  
     GW BOUNDARY FLOW =                         GW BOUNDARY FLOW =                  


                                    OUT                                        OUT
                                    ---                                        ---
   EVAPOTRANSPIRATION =        2.8638D+08     EVAPOTRANSPIRATION =          56245.61
           STREAMFLOW =        1.8472D+08             STREAMFLOW =           6710.74
     GW BOUNDARY FLOW =        3777385.59       GW BOUNDARY FLOW =            648.38

   INFLOWS - OUTFLOWS =       -8511659.38     INFLOWS - OUTFLOWS =         -63604.72
             --------                                   --------

 TOTAL STORAGE CHANGE =       -8485159.14         STORAGE CHANGE =         -63637.87
       --------------                             --------------
         LAND SURFACE =                             LAND SURFACE =                  
            SOIL ZONE =         685094.38              SOIL ZONE =         -44228.26
     UNSATURATED ZONE =        3939684.36       UNSATURATED ZONE =         -19309.52
       SATURATED ZONE =       -1.3110D+07         SATURATED ZONE =           -100.10

 OVERALL BUDGET ERROR =         -26500.24           BUDGET ERROR =             33.15


  PERCENT DISCREPANCY =             -0.01    PERCENT DISCREPANCY =              0.05



