1
 SUMMARY VOLUMETRIC BUDGET FOR GSFLOW 
 DATE: 10 07 1980              CUMULATIVE TIME STEP:       7
 MODFLOW STRESS PERIOD      2     CURRENT TIME STEP:       7     ITERATIONS:       6

 -----------------------------------------------------------------------------------

   CUMULATIVE VOLUMES               L**3   RATES FOR THIS TIME STEP           L**3/T
   ------------------                      ------------------------

                                     IN                                         IN
                                     --                                         --
        PRECIPITATION =                            PRECIPITATION =                  
           STREAMFLOW =                               STREAMFLOW =                  
     GW BOUNDARY FLOW =                         GW BOUNDARY FLOW =                  


                                    OUT                                        OUT
                                    ---                                        ---
   EVAPOTRANSPIRATION =          65413.48     EVAPOTRANSPIRATION =           9161.79
           STREAMFLOW =          42957.63             STREAMFLOW =           6065.77
     GW BOUNDARY FLOW =           4541.44       GW BOUNDARY FLOW =            648.70

   INFLOWS - OUTFLOWS =        -112912.54     INFLOWS - OUTFLOWS =         -15876.26
             --------                                   --------

 TOTAL STORAGE CHANGE =        -112456.76         STORAGE CHANGE =         -15807.95
       --------------                             --------------
         LAND SURFACE =                             LAND SURFACE =                  
            SOIL ZONE =          45103.57              SOIL ZONE =           6534.63
     UNSATURATED ZONE =        -144777.37       UNSATURATED ZONE =         -20360.11
       SATURATED ZONE =         -12782.96         SATURATED ZONE =          -1982.46

 OVERALL BUDGET ERROR =           -455.78           BUDGET ERROR =            -68.32


  PERCENT DISCREPANCY =             -0.40    PERCENT DISCREPANCY =             -0.43



1
 SUMMARY VOLUMETRIC BUDGET FOR GSFLOW 
 DATE: 10 14 1980              CUMULATIVE TIME STEP:      14
 MODFLOW STRESS PERIOD      2     CURRENT TIME STEP:      14     ITERATIONS:       6

 -----------------------------------------------------------------------------------

   CUMULATIVE VOLUMES               L**3   RATES FOR THIS TIME STEP           L**3/T
   ------------------                      ------------------------

                                     IN                                         IN
                                     --                                         --
        PRECIPITATION =         650779.83          PRECIPITATION =         164754.40
           STREAMFLOW =                               STREAMFLOW =                  
     GW BOUNDARY FLOW =                         GW BOUNDARY FLOW =                  


                                    OUT                                        OUT
                                    ---                                        ---
   EVAPOTRANSPIRATION =         161538.97     EVAPOTRANSPIRATION =          11486.75
           STREAMFLOW =          94453.68             STREAMFLOW =           7710.06
     GW BOUNDARY FLOW =           9082.96       GW BOUNDARY FLOW =            648.93

   INFLOWS - OUTFLOWS =         385704.22     INFLOWS - OUTFLOWS =         144908.65
             --------                                   --------

 TOTAL STORAGE CHANGE =         386676.37         STORAGE CHANGE =         144982.98
       --------------                             --------------
         LAND SURFACE =         183750.31           LAND SURFACE =         130549.56
            SOIL ZONE =         514864.01              SOIL ZONE =          36452.75
     UNSATURATED ZONE =        -284494.33       UNSATURATED ZONE =         -19623.98
       SATURATED ZONE =         -27443.62         SATURATED ZONE =          -2395.36

 OVERALL BUDGET ERROR =           -972.15           BUDGET ERROR =            -74.33


  PERCENT DISCREPANCY =             -0.15    PERCENT DISCREPANCY =             -0.05



1
 SUMMARY VOLUMETRIC BUDGET FOR GSFLOW 
 DATE: 10 21 1980              CUMULATIVE TIME STEP:      21
 MODFLOW STRESS PERIOD      2     CURRENT TIME STEP:      21     ITERATIONS:       6

 -----------------------------------------------------------------------------------

   CUMULATIVE VOLUMES               L**3   RATES FOR THIS TIME STEP           L**3/T
   ------------------                      ------------------------

                                     IN                                         IN
                                     --                                         --
        PRECIPITATION =         733157.03          PRECIPITATION =                  
           STREAMFLOW =                               STREAMFLOW =                  
     GW BOUNDARY FLOW =                         GW BOUNDARY FLOW =                  


                                    OUT                                        OUT
                                    ---                                        ---
   EVAPOTRANSPIRATION =         392349.56     EVAPOTRANSPIRATION =          34546.55
           STREAMFLOW =         145723.29             STREAMFLOW =           6918.53
     GW BOUNDARY FLOW =          13624.70       GW BOUNDARY FLOW =            648.74

   INFLOWS - OUTFLOWS =         181459.48     INFLOWS - OUTFLOWS =         -42113.81
             --------                                   --------

 TOTAL STORAGE CHANGE =         182940.38         STORAGE CHANGE =         -42035.28
       --------------                             --------------
         LAND SURFACE =                             LAND SURFACE =                  
            SOIL ZONE =         647974.45              SOIL ZONE =         -20189.02
     UNSATURATED ZONE =        -418660.01       UNSATURATED ZONE =         -18825.74
       SATURATED ZONE =         -46374.06         SATURATED ZONE =          -3020.52

 OVERALL BUDGET ERROR =          -1480.91           BUDGET ERROR =            -78.54


  PERCENT DISCREPANCY =             -0.20    PERCENT DISCREPANCY =             -0.19



1
 SUMMARY VOLUMETRIC BUDGET FOR GSFLOW 
 DATE: 10 28 1980              CUMULATIVE TIME STEP:      28
 MODFLOW STRESS PERIOD      2     CURRENT TIME STEP:      28     ITERATIONS:       6

 -----------------------------------------------------------------------------------

   CUMULATIVE VOLUMES               L**3   RATES FOR THIS TIME STEP           L**3/T
   ------------------                      ------------------------

                                     IN                                         IN
                                     --                                         --
        PRECIPITATION =        1070903.53          PRECIPITATION =                  
           STREAMFLOW =                               STREAMFLOW =                  
     GW BOUNDARY FLOW =                         GW BOUNDARY FLOW =                  


                                    OUT                                        OUT
                                    ---                                        ---
   EVAPOTRANSPIRATION =         578761.29     EVAPOTRANSPIRATION =          24710.43
           STREAMFLOW =         200317.63             STREAMFLOW =           7957.47
     GW BOUNDARY FLOW =          18165.95       GW BOUNDARY FLOW =            648.80

   INFLOWS - OUTFLOWS =         273658.65     INFLOWS - OUTFLOWS =         -33316.70
             --------                                   --------

 TOTAL STORAGE CHANGE =         275709.43         STORAGE CHANGE =         -33231.77
       --------------                             --------------
         LAND SURFACE =          20571.53           LAND SURFACE =         -29890.85
            SOIL ZONE =         871315.67              SOIL ZONE =          18137.27
     UNSATURATED ZONE =        -547241.36       UNSATURATED ZONE =         -17999.47
       SATURATED ZONE =         -68936.41         SATURATED ZONE =          -3478.71

 OVERALL BUDGET ERROR =          -2050.78           BUDGET ERROR =            -84.93


  PERCENT DISCREPANCY =             -0.19    PERCENT DISCREPANCY =             -0.26



1
 SUMMARY VOLUMETRIC BUDGET FOR GSFLOW 
 DATE: 11 04 1980              CUMULATIVE TIME STEP:      35
 MODFLOW STRESS PERIOD      2     CURRENT TIME STEP:      35     ITERATIONS:       8

 -----------------------------------------------------------------------------------

   CUMULATIVE VOLUMES               L**3   RATES FOR THIS TIME STEP           L**3/T
   ------------------                      ------------------------

                                     IN                                         IN
                                     --                                         --
        PRECIPITATION =        1070903.53          PRECIPITATION =                  
           STREAMFLOW =                               STREAMFLOW =                  
     GW BOUNDARY FLOW =                         GW BOUNDARY FLOW =                  


                                    OUT                                        OUT
                                    ---                                        ---
   EVAPOTRANSPIRATION =         910101.07     EVAPOTRANSPIRATION =          47149.60
           STREAMFLOW =         252880.65             STREAMFLOW =           7065.10
     GW BOUNDARY FLOW =          22706.95       GW BOUNDARY FLOW =            648.65

   INFLOWS - OUTFLOWS =        -114785.14     INFLOWS - OUTFLOWS =         -54863.35
             --------                                   --------

 TOTAL STORAGE CHANGE =        -112255.03         STORAGE CHANGE =         -54798.79
       --------------                             --------------
         LAND SURFACE =                             LAND SURFACE =                  
            SOIL ZONE =         654515.30              SOIL ZONE =         -33279.80
     UNSATURATED ZONE =        -670645.61       UNSATURATED ZONE =         -17361.72
       SATURATED ZONE =         -96124.72         SATURATED ZONE =          -4157.26

 OVERALL BUDGET ERROR =          -2530.11           BUDGET ERROR =            -64.56


  PERCENT DISCREPANCY =             -0.21    PERCENT DISCREPANCY =             -0.12



1
 SUMMARY VOLUMETRIC BUDGET FOR GSFLOW 
 DATE: 11 11 1980              CUMULATIVE TIME STEP:      42
 MODFLOW STRESS PERIOD      2     CURRENT TIME STEP:      42     ITERATIONS:       7

 -----------------------------------------------------------------------------------

   CUMULATIVE VOLUMES               L**3   RATES FOR THIS TIME STEP           L**3/T
   ------------------                      ------------------------

                                     IN                                         IN
                                     --                                         --
        PRECIPITATION =        1573762.54          PRECIPITATION =         255182.19
           STREAMFLOW =                               STREAMFLOW =                  
     GW BOUNDARY FLOW =                         GW BOUNDARY FLOW =                  


                                    OUT                                        OUT
                                    ---                                        ---
   EVAPOTRANSPIRATION =        1117900.90     EVAPOTRANSPIRATION =          18592.45
           STREAMFLOW =         310068.24             STREAMFLOW =          10977.30
     GW BOUNDARY FLOW =          27247.80       GW BOUNDARY FLOW =            648.87

   INFLOWS - OUTFLOWS =         118545.60     INFLOWS - OUTFLOWS =         224963.57
             --------                                   --------

 TOTAL STORAGE CHANGE =         121603.92         STORAGE CHANGE =         225027.62
       --------------                             --------------
         LAND SURFACE =          76960.22           LAND SURFACE =          76747.38
            SOIL ZONE =         959748.66              SOIL ZONE =         168885.94
     UNSATURATED ZONE =        -789135.29       UNSATURATED ZONE =         -16539.95
       SATURATED ZONE =        -125969.67         SATURATED ZONE =          -4065.75

 OVERALL BUDGET ERROR =          -3058.32           BUDGET ERROR =            -64.05


  PERCENT DISCREPANCY =             -0.19    PERCENT DISCREPANCY =             -0.03



1
 SUMMARY VOLUMETRIC BUDGET FOR GSFLOW 
 DATE: 11 18 1980              CUMULATIVE TIME STEP:      49
 MODFLOW STRESS PERIOD      2     CURRENT TIME STEP:      49     ITERATIONS:       6

 -----------------------------------------------------------------------------------

   CUMULATIVE VOLUMES               L**3   RATES FOR THIS TIME STEP           L**3/T
   ------------------                      ------------------------

                                     IN                                         IN
                                     --                                         --
        PRECIPITATION =        1573762.54          PRECIPITATION =                  
           STREAMFLOW =                               STREAMFLOW =                  
     GW BOUNDARY FLOW =                         GW BOUNDARY FLOW =                  


                                    OUT                                        OUT
                                    ---                                        ---
   EVAPOTRANSPIRATION =        1208451.17     EVAPOTRANSPIRATION =          16385.69
           STREAMFLOW =         373296.09             STREAMFLOW =           9231.72
     GW BOUNDARY FLOW =          31789.78       GW BOUNDARY FLOW =            648.86

   INFLOWS - OUTFLOWS =         -39774.49     INFLOWS - OUTFLOWS =         -26266.27
             --------                                   --------

 TOTAL STORAGE CHANGE =         -36115.82         STORAGE CHANGE =         -26166.25
       --------------                             --------------
         LAND SURFACE =           8139.47           LAND SURFACE =          -4965.50
            SOIL ZONE =        1017314.71              SOIL ZONE =           -364.72
     UNSATURATED ZONE =        -903047.83       UNSATURATED ZONE =         -16046.32
       SATURATED ZONE =        -158522.17         SATURATED ZONE =          -4789.69

 OVERALL BUDGET ERROR =          -3658.68           BUDGET ERROR =           -100.02


  PERCENT DISCREPANCY =             -0.23    PERCENT DISCREPANCY =             -0.38



1
 SUMMARY VOLUMETRIC BUDGET FOR GSFLOW 
 DATE: 11 25 1980              CUMULATIVE TIME STEP:      56
 MODFLOW STRESS PERIOD      2     CURRENT TIME STEP:      56     ITERATIONS:       7

 -----------------------------------------------------------------------------------

   CUMULATIVE VOLUMES               L**3   RATES FOR THIS TIME STEP           L**3/T
   ------------------                      ------------------------

                                     IN                                         IN
                                     --                                         --
        PRECIPITATION =        1648816.13          PRECIPITATION =                  
           STREAMFLOW =                               STREAMFLOW =                  
     GW BOUNDARY FLOW =                         GW BOUNDARY FLOW =                  


                                    OUT                                        OUT
                                    ---                                        ---
   EVAPOTRANSPIRATION =        1290462.19     EVAPOTRANSPIRATION =           9281.23
           STREAMFLOW =         438180.72             STREAMFLOW =           9376.93
     GW BOUNDARY FLOW =          36331.82       GW BOUNDARY FLOW =            648.87

   INFLOWS - OUTFLOWS =        -116158.61     INFLOWS - OUTFLOWS =         -19307.03
             --------                                   --------

 TOTAL STORAGE CHANGE =        -111885.11         STORAGE CHANGE =         -19226.34
       --------------                             --------------
         LAND SURFACE =          54136.41           LAND SURFACE =          -9258.02
            SOIL ZONE =        1041470.18              SOIL ZONE =          10855.94
     UNSATURATED ZONE =       -1012735.15       UNSATURATED ZONE =         -15407.97
       SATURATED ZONE =        -194756.55         SATURATED ZONE =          -5416.30

 OVERALL BUDGET ERROR =          -4273.50           BUDGET ERROR =            -80.69


  PERCENT DISCREPANCY =             -0.24    PERCENT DISCREPANCY =             -0.42



1
 SUMMARY VOLUMETRIC BUDGET FOR GSFLOW 
 DATE: 12 02 1980              CUMULATIVE TIME STEP:      63
 MODFLOW STRESS PERIOD      2     CURRENT TIME STEP:      63     ITERATIONS:       8

 -----------------------------------------------------------------------------------

   CUMULATIVE VOLUMES               L**3   RATES FOR THIS TIME STEP           L**3/T
   ------------------                      ------------------------

                                     IN                                         IN
                                     --                                         --
        PRECIPITATION =        2076621.55          PRECIPITATION =                  
           STREAMFLOW =                               STREAMFLOW =                  
     GW BOUNDARY FLOW =                         GW BOUNDARY FLOW =                  


                                    OUT                                        OUT
                                    ---                                        ---
   EVAPOTRANSPIRATION =        1479130.69     EVAPOTRANSPIRATION =          32849.18
           STREAMFLOW =         515601.04             STREAMFLOW =          13751.31
     GW BOUNDARY FLOW =          40874.92       GW BOUNDARY FLOW =            649.28

   INFLOWS - OUTFLOWS =          41014.90     INFLOWS - OUTFLOWS =         -47249.77
             --------                                   --------

 TOTAL STORAGE CHANGE =          45817.01         STORAGE CHANGE =         -47194.71
       --------------                             --------------
         LAND SURFACE =         157031.21           LAND SURFACE =         -76789.76
            SOIL ZONE =        1235954.30              SOIL ZONE =          47653.63
     UNSATURATED ZONE =       -1115175.27       UNSATURATED ZONE =         -13246.80
       SATURATED ZONE =        -231993.23         SATURATED ZONE =          -4811.78

 OVERALL BUDGET ERROR =          -4802.11           BUDGET ERROR =            -55.06


  PERCENT DISCREPANCY =             -0.23    PERCENT DISCREPANCY =             -0.12



1
 SUMMARY VOLUMETRIC BUDGET FOR GSFLOW 
 DATE: 12 09 1980              CUMULATIVE TIME STEP:      70
 MODFLOW STRESS PERIOD      2     CURRENT TIME STEP:      70     ITERATIONS:       7

 -----------------------------------------------------------------------------------

   CUMULATIVE VOLUMES               L**3   RATES FOR THIS TIME STEP           L**3/T
   ------------------                      ------------------------

                                     IN                                         IN
                                     --                                         --
        PRECIPITATION =        4284363.63          PRECIPITATION =                  
           STREAMFLOW =                               STREAMFLOW =                  
     GW BOUNDARY FLOW =                         GW BOUNDARY FLOW =                  


                                    OUT                                        OUT
                                    ---                                        ---
   EVAPOTRANSPIRATION =        1504769.47     EVAPOTRANSPIRATION =           3258.35
           STREAMFLOW =         605669.27             STREAMFLOW =          13239.05
     GW BOUNDARY FLOW =          45420.57       GW BOUNDARY FLOW =            649.47

   INFLOWS - OUTFLOWS =        2128504.32     INFLOWS - OUTFLOWS =         -17146.88
             --------                                   --------

 TOTAL STORAGE CHANGE =        2133813.69         STORAGE CHANGE =         -17073.84
       --------------                             --------------
         LAND SURFACE =        2337504.39           LAND SURFACE =          -3258.35
            SOIL ZONE =        1281516.49              SOIL ZONE =           6326.90
     UNSATURATED ZONE =       -1213922.35       UNSATURATED ZONE =         -14233.49
       SATURATED ZONE =        -271284.85         SATURATED ZONE =          -5908.90

 OVERALL BUDGET ERROR =          -5309.37           BUDGET ERROR =            -73.04


  PERCENT DISCREPANCY =             -0.12    PERCENT DISCREPANCY =             -0.43



1
 SUMMARY VOLUMETRIC BUDGET FOR GSFLOW 
 DATE: 12 16 1980              CUMULATIVE TIME STEP:      77
 MODFLOW STRESS PERIOD      2     CURRENT TIME STEP:      77     ITERATIONS:       7

 -----------------------------------------------------------------------------------

   CUMULATIVE VOLUMES               L**3   RATES FOR THIS TIME STEP           L**3/T
   ------------------                      ------------------------

                                     IN                                         IN
                                     --                                         --
        PRECIPITATION =        4284363.63          PRECIPITATION =                  
           STREAMFLOW =                               STREAMFLOW =                  
     GW BOUNDARY FLOW =                         GW BOUNDARY FLOW =                  


                                    OUT                                        OUT
                                    ---                                        ---
   EVAPOTRANSPIRATION =        1648770.86     EVAPOTRANSPIRATION =          33864.48
           STREAMFLOW =         716121.73             STREAMFLOW =          23003.68
     GW BOUNDARY FLOW =          49967.98       GW BOUNDARY FLOW =            650.05

   INFLOWS - OUTFLOWS =        1869503.07     INFLOWS - OUTFLOWS =         -57518.21
             --------                                   --------

 TOTAL STORAGE CHANGE =        1875294.54         STORAGE CHANGE =         -57453.69
       --------------                             --------------
         LAND SURFACE =        2017009.26           LAND SURFACE =        -133032.45
            SOIL ZONE =        1475696.50              SOIL ZONE =          89899.65
     UNSATURATED ZONE =       -1305055.76       UNSATURATED ZONE =          -9633.28
       SATURATED ZONE =        -312355.46         SATURATED ZONE =          -4687.60

 OVERALL BUDGET ERROR =          -5791.48           BUDGET ERROR =            -64.53


  PERCENT DISCREPANCY =             -0.14    PERCENT DISCREPANCY =             -0.11



1
 SUMMARY VOLUMETRIC BUDGET FOR GSFLOW 
 DATE: 12 23 1980              CUMULATIVE TIME STEP:      84
 MODFLOW STRESS PERIOD      2     CURRENT TIME STEP:      84     ITERATIONS:       9

 -----------------------------------------------------------------------------------

   CUMULATIVE VOLUMES               L**3   RATES FOR THIS TIME STEP           L**3/T
   ------------------                      ------------------------

                                     IN                                         IN
                                     --                                         --
        PRECIPITATION =        4516757.54          PRECIPITATION =                  
           STREAMFLOW =                               STREAMFLOW =                  
     GW BOUNDARY FLOW =                         GW BOUNDARY FLOW =                  


                                    OUT                                        OUT
                                    ---                                        ---
   EVAPOTRANSPIRATION =        1840931.46     EVAPOTRANSPIRATION =          33245.56
           STREAMFLOW =         938019.28             STREAMFLOW =          30343.50
     GW BOUNDARY FLOW =          54527.47       GW BOUNDARY FLOW =            651.88

   INFLOWS - OUTFLOWS =        1683279.32     INFLOWS - OUTFLOWS =         -64240.94
             --------                                   --------

 TOTAL STORAGE CHANGE =        1689393.57         STORAGE CHANGE =         -64196.95
       --------------                             --------------
         LAND SURFACE =        1391476.44           LAND SURFACE =         -50626.27
            SOIL ZONE =        1987686.97              SOIL ZONE =          -2867.06
     UNSATURATED ZONE =       -1349024.33       UNSATURATED ZONE =          -6246.28
       SATURATED ZONE =        -340745.51         SATURATED ZONE =          -4457.34

 OVERALL BUDGET ERROR =          -6114.24           BUDGET ERROR =            -43.99


  PERCENT DISCREPANCY =             -0.14    PERCENT DISCREPANCY =             -0.07



1
 SUMMARY VOLUMETRIC BUDGET FOR GSFLOW 
 DATE: 12 30 1980              CUMULATIVE TIME STEP:      91
 MODFLOW STRESS PERIOD      2     CURRENT TIME STEP:      91     ITERATIONS:      10

 -----------------------------------------------------------------------------------

   CUMULATIVE VOLUMES               L**3   RATES FOR THIS TIME STEP           L**3/T
   ------------------                      ------------------------

                                     IN                                         IN
                                     --                                         --
        PRECIPITATION =        4516757.54          PRECIPITATION =                  
           STREAMFLOW =                               STREAMFLOW =                  
     GW BOUNDARY FLOW =                         GW BOUNDARY FLOW =                  


                                    OUT                                        OUT
                                    ---                                        ---
   EVAPOTRANSPIRATION =        2153838.22     EVAPOTRANSPIRATION =          41017.16
           STREAMFLOW =        1189691.30             STREAMFLOW =          28585.74
     GW BOUNDARY FLOW =          59094.42       GW BOUNDARY FLOW =            652.46

   INFLOWS - OUTFLOWS =        1114133.59     INFLOWS - OUTFLOWS =         -70255.37
             --------                                   --------

 TOTAL STORAGE CHANGE =        1120438.23         STORAGE CHANGE =         -70231.95
       --------------                             --------------
         LAND SURFACE =         579625.22           LAND SURFACE =         -42433.18
            SOIL ZONE =        2261226.35              SOIL ZONE =         -20898.44
     UNSATURATED ZONE =       -1354815.33       UNSATURATED ZONE =          -2763.13
       SATURATED ZONE =        -365598.01         SATURATED ZONE =          -4137.20

 OVERALL BUDGET ERROR =          -6304.64           BUDGET ERROR =            -23.42


  PERCENT DISCREPANCY =             -0.14    PERCENT DISCREPANCY =             -0.03



1
 SUMMARY VOLUMETRIC BUDGET FOR GSFLOW 
 DATE: 01 06 1981              CUMULATIVE TIME STEP:      98
 MODFLOW STRESS PERIOD      2     CURRENT TIME STEP:      98     ITERATIONS:       8

 -----------------------------------------------------------------------------------

   CUMULATIVE VOLUMES               L**3   RATES FOR THIS TIME STEP           L**3/T
   ------------------                      ------------------------

                                     IN                                         IN
                                     --                                         --
        PRECIPITATION =        5004445.43          PRECIPITATION =                  
           STREAMFLOW =                               STREAMFLOW =                  
     GW BOUNDARY FLOW =                         GW BOUNDARY FLOW =                  


                                    OUT                                        OUT
                                    ---                                        ---
   EVAPOTRANSPIRATION =        2353249.44     EVAPOTRANSPIRATION =          18968.00
           STREAMFLOW =        1343694.14             STREAMFLOW =          20635.72
     GW BOUNDARY FLOW =          63656.09       GW BOUNDARY FLOW =            651.19

   INFLOWS - OUTFLOWS =        1243845.77     INFLOWS - OUTFLOWS =         -40254.91
             --------                                   --------

 TOTAL STORAGE CHANGE =        1250342.65         STORAGE CHANGE =         -40221.59
       --------------                             --------------
         LAND SURFACE =         840075.41           LAND SURFACE =         -25549.73
            SOIL ZONE =        2230793.11              SOIL ZONE =           2144.26
     UNSATURATED ZONE =       -1417237.88       UNSATURATED ZONE =         -11087.84
       SATURATED ZONE =        -403287.99         SATURATED ZONE =          -5728.28

 OVERALL BUDGET ERROR =          -6496.88           BUDGET ERROR =            -33.32


  PERCENT DISCREPANCY =             -0.13    PERCENT DISCREPANCY =             -0.08



1
 SUMMARY VOLUMETRIC BUDGET FOR GSFLOW 
 DATE: 01 13 1981              CUMULATIVE TIME STEP:     105
 MODFLOW STRESS PERIOD      2     CURRENT TIME STEP:     105     ITERATIONS:       7

 -----------------------------------------------------------------------------------

   CUMULATIVE VOLUMES               L**3   RATES FOR THIS TIME STEP           L**3/T
   ------------------                      ------------------------

                                     IN                                         IN
                                     --                                         --
        PRECIPITATION =        5004445.43          PRECIPITATION =                  
           STREAMFLOW =                               STREAMFLOW =                  
     GW BOUNDARY FLOW =                         GW BOUNDARY FLOW =                  


                                    OUT                                        OUT
                                    ---                                        ---
   EVAPOTRANSPIRATION =        2541611.95     EVAPOTRANSPIRATION =          38974.40
           STREAMFLOW =        1491694.47             STREAMFLOW =          20732.20
     GW BOUNDARY FLOW =          68213.03       GW BOUNDARY FLOW =            650.86

   INFLOWS - OUTFLOWS =         902925.98     INFLOWS - OUTFLOWS =         -60357.46
             --------                                   --------

 TOTAL STORAGE CHANGE =         909785.95         STORAGE CHANGE =         -60297.07
       --------------                             --------------
         LAND SURFACE =         624161.65           LAND SURFACE =         -38673.92
            SOIL ZONE =        2215137.99              SOIL ZONE =          -6605.27
     UNSATURATED ZONE =       -1483279.10       UNSATURATED ZONE =          -8633.96
       SATURATED ZONE =        -446234.59         SATURATED ZONE =          -6383.93

 OVERALL BUDGET ERROR =          -6859.97           BUDGET ERROR =            -60.38


  PERCENT DISCREPANCY =             -0.14    PERCENT DISCREPANCY =             -0.10



1
 SUMMARY VOLUMETRIC BUDGET FOR GSFLOW 
 DATE: 01 20 1981              CUMULATIVE TIME STEP:     112
 MODFLOW STRESS PERIOD      2     CURRENT TIME STEP:     112     ITERATIONS:       8

 -----------------------------------------------------------------------------------

   CUMULATIVE VOLUMES               L**3   RATES FOR THIS TIME STEP           L**3/T
   ------------------                      ------------------------

                                     IN                                         IN
                                     --                                         --
        PRECIPITATION =        5170466.84          PRECIPITATION =          41505.35
           STREAMFLOW =                               STREAMFLOW =                  
     GW BOUNDARY FLOW =                         GW BOUNDARY FLOW =                  


                                    OUT                                        OUT
                                    ---                                        ---
   EVAPOTRANSPIRATION =        2797501.09     EVAPOTRANSPIRATION =          30606.98
           STREAMFLOW =        1636495.98             STREAMFLOW =          20334.60
     GW BOUNDARY FLOW =          72768.12       GW BOUNDARY FLOW =            650.66

   INFLOWS - OUTFLOWS =         663701.65     INFLOWS - OUTFLOWS =         -10086.89
             --------                                   --------

 TOTAL STORAGE CHANGE =         670929.51         STORAGE CHANGE =         -10054.39
       --------------                             --------------
         LAND SURFACE =         464145.89           LAND SURFACE =           8501.89
            SOIL ZONE =        2210192.70              SOIL ZONE =         -10481.28
     UNSATURATED ZONE =       -1513291.54       UNSATURATED ZONE =          -1476.23
       SATURATED ZONE =        -490117.54         SATURATED ZONE =          -6598.79

 OVERALL BUDGET ERROR =          -7227.85           BUDGET ERROR =            -32.49


  PERCENT DISCREPANCY =             -0.14    PERCENT DISCREPANCY =             -0.06



1
 SUMMARY VOLUMETRIC BUDGET FOR GSFLOW 
 DATE: 01 27 1981              CUMULATIVE TIME STEP:     119
 MODFLOW STRESS PERIOD      2     CURRENT TIME STEP:     119     ITERATIONS:       8

 -----------------------------------------------------------------------------------

   CUMULATIVE VOLUMES               L**3   RATES FOR THIS TIME STEP           L**3/T
   ------------------                      ------------------------

                                     IN                                         IN
                                     --                                         --
        PRECIPITATION =        8646540.08          PRECIPITATION =        2936503.63
           STREAMFLOW =                               STREAMFLOW =                  
     GW BOUNDARY FLOW =                         GW BOUNDARY FLOW =                  


                                    OUT                                        OUT
                                    ---                                        ---
   EVAPOTRANSPIRATION =        3019648.95     EVAPOTRANSPIRATION =          12639.57
           STREAMFLOW =        1782949.39             STREAMFLOW =          18817.08
     GW BOUNDARY FLOW =          77322.54       GW BOUNDARY FLOW =            650.45

   INFLOWS - OUTFLOWS =        3766619.19     INFLOWS - OUTFLOWS =        2904396.53
             --------                                   --------

 TOTAL STORAGE CHANGE =        3774046.23         STORAGE CHANGE =        2904427.51
       --------------                             --------------
         LAND SURFACE =        3592460.11           LAND SURFACE =        2923864.12
            SOIL ZONE =        2218002.45              SOIL ZONE =          -7076.78
     UNSATURATED ZONE =       -1501925.77       UNSATURATED ZONE =          -5610.61
       SATURATED ZONE =        -534490.56         SATURATED ZONE =          -6749.22

 OVERALL BUDGET ERROR =          -7427.03           BUDGET ERROR =            -30.97


  PERCENT DISCREPANCY =             -0.09    PERCENT DISCREPANCY =             -0.00



1
 SUMMARY VOLUMETRIC BUDGET FOR GSFLOW 
 DATE: 02 03 1981              CUMULATIVE TIME STEP:     126
 MODFLOW STRESS PERIOD      2     CURRENT TIME STEP:     126     ITERATIONS:       8

 -----------------------------------------------------------------------------------

   CUMULATIVE VOLUMES               L**3   RATES FOR THIS TIME STEP           L**3/T
   ------------------                      ------------------------

                                     IN                                         IN
                                     --                                         --
        PRECIPITATION =        1.1739D+07          PRECIPITATION =                  
           STREAMFLOW =                               STREAMFLOW =                  
     GW BOUNDARY FLOW =                         GW BOUNDARY FLOW =                  


                                    OUT                                        OUT
                                    ---                                        ---
   EVAPOTRANSPIRATION =        3054840.31     EVAPOTRANSPIRATION =           7106.06
           STREAMFLOW =        1910627.89             STREAMFLOW =          18117.92
     GW BOUNDARY FLOW =          81874.72       GW BOUNDARY FLOW =            650.26

   INFLOWS - OUTFLOWS =        6691345.85     INFLOWS - OUTFLOWS =         -25874.25
             --------                                   --------

 TOTAL STORAGE CHANGE =        6699016.12         STORAGE CHANGE =         -25828.68
       --------------                             --------------
         LAND SURFACE =        6649417.45           LAND SURFACE =          -7106.06
            SOIL ZONE =        2207719.79              SOIL ZONE =            411.08
     UNSATURATED ZONE =       -1572882.09       UNSATURATED ZONE =         -11557.02
       SATURATED ZONE =        -585239.02         SATURATED ZONE =          -7576.68

 OVERALL BUDGET ERROR =          -7670.27           BUDGET ERROR =            -45.57


  PERCENT DISCREPANCY =             -0.07    PERCENT DISCREPANCY =             -0.18



1
 SUMMARY VOLUMETRIC BUDGET FOR GSFLOW 
 DATE: 02 10 1981              CUMULATIVE TIME STEP:     133
 MODFLOW STRESS PERIOD      2     CURRENT TIME STEP:     133     ITERATIONS:       7

 -----------------------------------------------------------------------------------

   CUMULATIVE VOLUMES               L**3   RATES FOR THIS TIME STEP           L**3/T
   ------------------                      ------------------------

                                     IN                                         IN
                                     --                                         --
        PRECIPITATION =        1.1838D+07          PRECIPITATION =                  
           STREAMFLOW =                               STREAMFLOW =                  
     GW BOUNDARY FLOW =                         GW BOUNDARY FLOW =                  


                                    OUT                                        OUT
                                    ---                                        ---
   EVAPOTRANSPIRATION =        3175943.83     EVAPOTRANSPIRATION =          32343.27
           STREAMFLOW =        2037501.54             STREAMFLOW =          18138.33
     GW BOUNDARY FLOW =          86426.54       GW BOUNDARY FLOW =            650.25

   INFLOWS - OUTFLOWS =        6538381.36     INFLOWS - OUTFLOWS =         -51131.85
             --------                                   --------

 TOTAL STORAGE CHANGE =        6546385.41         STORAGE CHANGE =         -51069.05
       --------------                             --------------
         LAND SURFACE =        6627878.44           LAND SURFACE =         -32343.27
            SOIL ZONE =        2211289.48              SOIL ZONE =            464.68
     UNSATURATED ZONE =       -1651151.73       UNSATURATED ZONE =         -10798.40
       SATURATED ZONE =        -641630.78         SATURATED ZONE =          -8392.06

 OVERALL BUDGET ERROR =          -8004.05           BUDGET ERROR =            -62.80


  PERCENT DISCREPANCY =             -0.07    PERCENT DISCREPANCY =             -0.12



1
 SUMMARY VOLUMETRIC BUDGET FOR GSFLOW 
 DATE: 02 17 1981              CUMULATIVE TIME STEP:     140
 MODFLOW STRESS PERIOD      2     CURRENT TIME STEP:     140     ITERATIONS:      14

 -----------------------------------------------------------------------------------

   CUMULATIVE VOLUMES               L**3   RATES FOR THIS TIME STEP           L**3/T
   ------------------                      ------------------------

                                     IN                                         IN
                                     --                                         --
        PRECIPITATION =        1.2765D+07          PRECIPITATION =          68929.28
           STREAMFLOW =                               STREAMFLOW =                  
     GW BOUNDARY FLOW =                         GW BOUNDARY FLOW =                  


                                    OUT                                        OUT
                                    ---                                        ---
   EVAPOTRANSPIRATION =        3496919.04     EVAPOTRANSPIRATION =          57077.36
           STREAMFLOW =        2562310.86             STREAMFLOW =         123081.95
     GW BOUNDARY FLOW =          90999.53       GW BOUNDARY FLOW =            656.71

   INFLOWS - OUTFLOWS =        6614739.68     INFLOWS - OUTFLOWS =        -111886.73
             --------                                   --------

 TOTAL STORAGE CHANGE =        6623042.53         STORAGE CHANGE =        -111873.04
       --------------                             --------------
         LAND SURFACE =        5733342.67           LAND SURFACE =        -263707.48
            SOIL ZONE =        2959035.23              SOIL ZONE =          72002.81
     UNSATURATED ZONE =       -1409696.41       UNSATURATED ZONE =          77543.69
       SATURATED ZONE =        -659638.96         SATURATED ZONE =           2287.94

 OVERALL BUDGET ERROR =          -8302.85           BUDGET ERROR =            -13.69


  PERCENT DISCREPANCY =             -0.07    PERCENT DISCREPANCY =             -0.01



1
 SUMMARY VOLUMETRIC BUDGET FOR GSFLOW 
 DATE: 02 24 1981              CUMULATIVE TIME STEP:     147
 MODFLOW STRESS PERIOD      2     CURRENT TIME STEP:     147     ITERATIONS:      14

 -----------------------------------------------------------------------------------

   CUMULATIVE VOLUMES               L**3   RATES FOR THIS TIME STEP           L**3/T
   ------------------                      ------------------------

                                     IN                                         IN
                                     --                                         --
        PRECIPITATION =        1.3179D+07          PRECIPITATION =         344646.37
           STREAMFLOW =                               STREAMFLOW =                  
     GW BOUNDARY FLOW =                         GW BOUNDARY FLOW =                  


                                    OUT                                        OUT
                                    ---                                        ---
   EVAPOTRANSPIRATION =        3805896.35     EVAPOTRANSPIRATION =          18156.56
           STREAMFLOW =        3129783.53             STREAMFLOW =          52288.59
     GW BOUNDARY FLOW =          95593.68       GW BOUNDARY FLOW =            655.34

   INFLOWS - OUTFLOWS =        6147271.19     INFLOWS - OUTFLOWS =         273545.88
             --------                                   --------

 TOTAL STORAGE CHANGE =        6155545.79         STORAGE CHANGE =         273543.40
       --------------                             --------------
         LAND SURFACE =        5134001.49           LAND SURFACE =         302140.02
            SOIL ZONE =        2702164.05              SOIL ZONE =         -60981.92
     UNSATURATED ZONE =       -1044781.50       UNSATURATED ZONE =          30096.50
       SATURATED ZONE =        -635838.26         SATURATED ZONE =           2288.80

 OVERALL BUDGET ERROR =          -8274.60           BUDGET ERROR =              2.48


  PERCENT DISCREPANCY =             -0.06    PERCENT DISCREPANCY =              0.00



1
 SUMMARY VOLUMETRIC BUDGET FOR GSFLOW 
 DATE: 03 03 1981              CUMULATIVE TIME STEP:     154
 MODFLOW STRESS PERIOD      2     CURRENT TIME STEP:     154     ITERATIONS:      11

 -----------------------------------------------------------------------------------

   CUMULATIVE VOLUMES               L**3   RATES FOR THIS TIME STEP           L**3/T
   ------------------                      ------------------------

                                     IN                                         IN
                                     --                                         --
        PRECIPITATION =        1.3447D+07          PRECIPITATION =                  
           STREAMFLOW =                               STREAMFLOW =                  
     GW BOUNDARY FLOW =                         GW BOUNDARY FLOW =                  


                                    OUT                                        OUT
                                    ---                                        ---
   EVAPOTRANSPIRATION =        3952449.86     EVAPOTRANSPIRATION =          40411.55
           STREAMFLOW =        3354293.12             STREAMFLOW =          27364.10
     GW BOUNDARY FLOW =         100166.85       GW BOUNDARY FLOW =            652.31

   INFLOWS - OUTFLOWS =        6039693.21     INFLOWS - OUTFLOWS =         -68427.96
             --------                                   --------

 TOTAL STORAGE CHANGE =        6047850.61         STORAGE CHANGE =         -68447.89
       --------------                             --------------
         LAND SURFACE =        5236571.40           LAND SURFACE =         -57449.18
            SOIL ZONE =        2486538.18              SOIL ZONE =             90.69
     UNSATURATED ZONE =       -1036114.92       UNSATURATED ZONE =          -9211.79
       SATURATED ZONE =        -639144.05         SATURATED ZONE =          -1877.61

 OVERALL BUDGET ERROR =          -8157.40           BUDGET ERROR =             19.94


  PERCENT DISCREPANCY =             -0.06    PERCENT DISCREPANCY =              0.03



1
 SUMMARY VOLUMETRIC BUDGET FOR GSFLOW 
 DATE: 03 10 1981              CUMULATIVE TIME STEP:     161
 MODFLOW STRESS PERIOD      2     CURRENT TIME STEP:     161     ITERATIONS:      11

 -----------------------------------------------------------------------------------

   CUMULATIVE VOLUMES               L**3   RATES FOR THIS TIME STEP           L**3/T
   ------------------                      ------------------------

                                     IN                                         IN
                                     --                                         --
        PRECIPITATION =        1.3493D+07          PRECIPITATION =                  
           STREAMFLOW =                               STREAMFLOW =                  
     GW BOUNDARY FLOW =                         GW BOUNDARY FLOW =                  


                                    OUT                                        OUT
                                    ---                                        ---
   EVAPOTRANSPIRATION =        4240236.54     EVAPOTRANSPIRATION =          59674.26
           STREAMFLOW =        3579499.66             STREAMFLOW =          41728.59
     GW BOUNDARY FLOW =         104732.05       GW BOUNDARY FLOW =            652.77

   INFLOWS - OUTFLOWS =        5568472.91     INFLOWS - OUTFLOWS =        -102055.62
             --------                                   --------

 TOTAL STORAGE CHANGE =        5576579.68         STORAGE CHANGE =        -102055.63
       --------------                             --------------
         LAND SURFACE =        4665498.34           LAND SURFACE =        -147188.93
            SOIL ZONE =        2590352.49              SOIL ZONE =          29755.76
     UNSATURATED ZONE =       -1026975.48       UNSATURATED ZONE =          16248.99
       SATURATED ZONE =        -652295.66         SATURATED ZONE =           -871.45

 OVERALL BUDGET ERROR =          -8106.78           BUDGET ERROR =        9.1325D-03


  PERCENT DISCREPANCY =             -0.06    PERCENT DISCREPANCY =              0.00



1
 SUMMARY VOLUMETRIC BUDGET FOR GSFLOW 
 DATE: 03 17 1981              CUMULATIVE TIME STEP:     168
 MODFLOW STRESS PERIOD      2     CURRENT TIME STEP:     168     ITERATIONS:       9

 -----------------------------------------------------------------------------------

   CUMULATIVE VOLUMES               L**3   RATES FOR THIS TIME STEP           L**3/T
   ------------------                      ------------------------

                                     IN                                         IN
                                     --                                         --
        PRECIPITATION =        1.3744D+07          PRECIPITATION =                  
           STREAMFLOW =                               STREAMFLOW =                  
     GW BOUNDARY FLOW =                         GW BOUNDARY FLOW =                  


                                    OUT                                        OUT
                                    ---                                        ---
   EVAPOTRANSPIRATION =        4554693.32     EVAPOTRANSPIRATION =          33262.65
           STREAMFLOW =        3802264.38             STREAMFLOW =          23962.21
     GW BOUNDARY FLOW =         109298.79       GW BOUNDARY FLOW =            651.83

   INFLOWS - OUTFLOWS =        5278234.40     INFLOWS - OUTFLOWS =         -57876.69
             --------                                   --------

 TOTAL STORAGE CHANGE =        5286265.43         STORAGE CHANGE =         -57883.82
       --------------                             --------------
         LAND SURFACE =        4532338.70           LAND SURFACE =         -32994.50
            SOIL ZONE =        2440348.86              SOIL ZONE =          -5489.23
     UNSATURATED ZONE =       -1015906.72       UNSATURATED ZONE =         -14926.10
       SATURATED ZONE =        -670515.41         SATURATED ZONE =          -4473.98

 OVERALL BUDGET ERROR =          -8031.03           BUDGET ERROR =              7.13


  PERCENT DISCREPANCY =             -0.06    PERCENT DISCREPANCY =              0.01



1
 SUMMARY VOLUMETRIC BUDGET FOR GSFLOW 
 DATE: 03 24 1981              CUMULATIVE TIME STEP:     175
 MODFLOW STRESS PERIOD      2     CURRENT TIME STEP:     175     ITERATIONS:      10

 -----------------------------------------------------------------------------------

   CUMULATIVE VOLUMES               L**3   RATES FOR THIS TIME STEP           L**3/T
   ------------------                      ------------------------

                                     IN                                         IN
                                     --                                         --
        PRECIPITATION =        1.4367D+07          PRECIPITATION =                  
           STREAMFLOW =                               STREAMFLOW =                  
     GW BOUNDARY FLOW =                         GW BOUNDARY FLOW =                  


                                    OUT                                        OUT
                                    ---                                        ---
   EVAPOTRANSPIRATION =        4874516.59     EVAPOTRANSPIRATION =          80764.17
           STREAMFLOW =        3968503.05             STREAMFLOW =          25209.63
     GW BOUNDARY FLOW =         113858.50       GW BOUNDARY FLOW =            651.29

   INFLOWS - OUTFLOWS =        5409867.37     INFLOWS - OUTFLOWS =        -106625.08
             --------                                   --------

 TOTAL STORAGE CHANGE =        5417907.12         STORAGE CHANGE =        -106630.47
       --------------                             --------------
         LAND SURFACE =        4882235.51           LAND SURFACE =         -56598.13
            SOIL ZONE =        2340490.28              SOIL ZONE =         -38155.97
     UNSATURATED ZONE =       -1098033.14       UNSATURATED ZONE =          -6618.87
       SATURATED ZONE =        -706785.53         SATURATED ZONE =          -5257.50

 OVERALL BUDGET ERROR =          -8039.75           BUDGET ERROR =              5.39


  PERCENT DISCREPANCY =             -0.06    PERCENT DISCREPANCY =              0.01



1
 SUMMARY VOLUMETRIC BUDGET FOR GSFLOW 
 DATE: 03 31 1981              CUMULATIVE TIME STEP:     182
 MODFLOW STRESS PERIOD      2     CURRENT TIME STEP:     182     ITERATIONS:      12

 -----------------------------------------------------------------------------------

   CUMULATIVE VOLUMES               L**3   RATES FOR THIS TIME STEP           L**3/T
   ------------------                      ------------------------

                                     IN                                         IN
                                     --                                         --
        PRECIPITATION =        1.5777D+07          PRECIPITATION =                  
           STREAMFLOW =                               STREAMFLOW =                  
     GW BOUNDARY FLOW =                         GW BOUNDARY FLOW =                  


                                    OUT                                        OUT
                                    ---                                        ---
   EVAPOTRANSPIRATION =        5262689.89     EVAPOTRANSPIRATION =          42424.06
           STREAMFLOW =        4417898.94             STREAMFLOW =          33752.52
     GW BOUNDARY FLOW =         118437.02       GW BOUNDARY FLOW =            653.17

   INFLOWS - OUTFLOWS =        5977722.14     INFLOWS - OUTFLOWS =         -76829.75
             --------                                   --------

 TOTAL STORAGE CHANGE =        5985702.41         STORAGE CHANGE =         -76852.59
       --------------                             --------------
         LAND SURFACE =        5101875.75           LAND SURFACE =         -42987.31
            SOIL ZONE =        2506348.16              SOIL ZONE =         -32441.12
     UNSATURATED ZONE =        -913849.79       UNSATURATED ZONE =            762.64
       SATURATED ZONE =        -708671.71         SATURATED ZONE =          -2186.79

 OVERALL BUDGET ERROR =          -7980.27           BUDGET ERROR =             22.84


  PERCENT DISCREPANCY =             -0.05    PERCENT DISCREPANCY =              0.03



1
 SUMMARY VOLUMETRIC BUDGET FOR GSFLOW 
 DATE: 04 07 1981              CUMULATIVE TIME STEP:     189
 MODFLOW STRESS PERIOD      2     CURRENT TIME STEP:     189     ITERATIONS:      10

 -----------------------------------------------------------------------------------

   CUMULATIVE VOLUMES               L**3   RATES FOR THIS TIME STEP           L**3/T
   ------------------                      ------------------------

                                     IN                                         IN
                                     --                                         --
        PRECIPITATION =        1.6121D+07          PRECIPITATION =                  
           STREAMFLOW =                               STREAMFLOW =                  
     GW BOUNDARY FLOW =                         GW BOUNDARY FLOW =                  


                                    OUT                                        OUT
                                    ---                                        ---
   EVAPOTRANSPIRATION =        5857138.69     EVAPOTRANSPIRATION =          97287.85
           STREAMFLOW =        4713413.69             STREAMFLOW =          42222.00
     GW BOUNDARY FLOW =         123010.10       GW BOUNDARY FLOW =            653.57

   INFLOWS - OUTFLOWS =        5427905.12     INFLOWS - OUTFLOWS =        -140163.42
             --------                                   --------

 TOTAL STORAGE CHANGE =        5435811.87         STORAGE CHANGE =        -140176.58
       --------------                             --------------
         LAND SURFACE =        4536824.49           LAND SURFACE =        -138203.79
            SOIL ZONE =        2467671.40              SOIL ZONE =         -11875.40
     UNSATURATED ZONE =        -852930.32       UNSATURATED ZONE =          10404.17
       SATURATED ZONE =        -715753.70         SATURATED ZONE =           -501.56

 OVERALL BUDGET ERROR =          -7906.75           BUDGET ERROR =             13.16


  PERCENT DISCREPANCY =             -0.05    PERCENT DISCREPANCY =              0.01



1
 SUMMARY VOLUMETRIC BUDGET FOR GSFLOW 
 DATE: 04 14 1981              CUMULATIVE TIME STEP:     196
 MODFLOW STRESS PERIOD      2     CURRENT TIME STEP:     196     ITERATIONS:      13

 -----------------------------------------------------------------------------------

   CUMULATIVE VOLUMES               L**3   RATES FOR THIS TIME STEP           L**3/T
   ------------------                      ------------------------

                                     IN                                         IN
                                     --                                         --
        PRECIPITATION =        1.6121D+07          PRECIPITATION =                  
           STREAMFLOW =                               STREAMFLOW =                  
     GW BOUNDARY FLOW =                         GW BOUNDARY FLOW =                  


                                    OUT                                        OUT
                                    ---                                        ---
   EVAPOTRANSPIRATION =        6720567.85     EVAPOTRANSPIRATION =         187136.52
           STREAMFLOW =        5051430.46             STREAMFLOW =          60993.11
     GW BOUNDARY FLOW =         127585.88       GW BOUNDARY FLOW =            653.97

   INFLOWS - OUTFLOWS =        4221883.41     INFLOWS - OUTFLOWS =        -248783.60
             --------                                   --------

 TOTAL STORAGE CHANGE =        4229688.96         STORAGE CHANGE =        -248788.85
       --------------                             --------------
         LAND SURFACE =        3249108.87           LAND SURFACE =        -276414.16
            SOIL ZONE =        2439348.45              SOIL ZONE =           -680.48
     UNSATURATED ZONE =        -744462.79       UNSATURATED ZONE =          26226.06
       SATURATED ZONE =        -714305.57         SATURATED ZONE =           2079.73

 OVERALL BUDGET ERROR =          -7805.55           BUDGET ERROR =              5.25


  PERCENT DISCREPANCY =             -0.05    PERCENT DISCREPANCY =              0.00



1
 SUMMARY VOLUMETRIC BUDGET FOR GSFLOW 
 DATE: 04 21 1981              CUMULATIVE TIME STEP:     203
 MODFLOW STRESS PERIOD      2     CURRENT TIME STEP:     203     ITERATIONS:      14

 -----------------------------------------------------------------------------------

   CUMULATIVE VOLUMES               L**3   RATES FOR THIS TIME STEP           L**3/T
   ------------------                      ------------------------

                                     IN                                         IN
                                     --                                         --
        PRECIPITATION =        1.6310D+07          PRECIPITATION =                  
           STREAMFLOW =                               STREAMFLOW =                  
     GW BOUNDARY FLOW =                         GW BOUNDARY FLOW =                  


                                    OUT                                        OUT
                                    ---                                        ---
   EVAPOTRANSPIRATION =        7764647.43     EVAPOTRANSPIRATION =         153863.14
           STREAMFLOW =        5438876.91             STREAMFLOW =          53968.51
     GW BOUNDARY FLOW =         132160.34       GW BOUNDARY FLOW =            653.15

   INFLOWS - OUTFLOWS =        2974557.96     INFLOWS - OUTFLOWS =        -208484.80
             --------                                   --------

 TOTAL STORAGE CHANGE =        2982252.27         STORAGE CHANGE =        -208494.48
       --------------                             --------------
         LAND SURFACE =        1941586.44           LAND SURFACE =        -141315.80
            SOIL ZONE =        2325825.29              SOIL ZONE =         -93505.79
     UNSATURATED ZONE =        -589582.27       UNSATURATED ZONE =          22932.33
       SATURATED ZONE =        -695577.18         SATURATED ZONE =           3394.79

 OVERALL BUDGET ERROR =          -7694.31           BUDGET ERROR =              9.68


  PERCENT DISCREPANCY =             -0.05    PERCENT DISCREPANCY =              0.00



1
 SUMMARY VOLUMETRIC BUDGET FOR GSFLOW 
 DATE: 04 28 1981              CUMULATIVE TIME STEP:     210
 MODFLOW STRESS PERIOD      2     CURRENT TIME STEP:     210     ITERATIONS:      14

 -----------------------------------------------------------------------------------

   CUMULATIVE VOLUMES               L**3   RATES FOR THIS TIME STEP           L**3/T
   ------------------                      ------------------------

                                     IN                                         IN
                                     --                                         --
        PRECIPITATION =        1.6515D+07          PRECIPITATION =                  
           STREAMFLOW =                               STREAMFLOW =                  
     GW BOUNDARY FLOW =                         GW BOUNDARY FLOW =                  


                                    OUT                                        OUT
                                    ---                                        ---
   EVAPOTRANSPIRATION =        9019281.35     EVAPOTRANSPIRATION =         210898.40
           STREAMFLOW =        5699175.21             STREAMFLOW =          30434.46
     GW BOUNDARY FLOW =         136723.89       GW BOUNDARY FLOW =            651.00

   INFLOWS - OUTFLOWS =        1660252.44     INFLOWS - OUTFLOWS =        -241983.86
             --------                                   --------

 TOTAL STORAGE CHANGE =        1667821.74         STORAGE CHANGE =        -242003.65
       --------------                             --------------
         LAND SURFACE =        1047886.52           LAND SURFACE =        -108965.88
            SOIL ZONE =        1836247.47              SOIL ZONE =        -138372.77
     UNSATURATED ZONE =        -535725.14       UNSATURATED ZONE =           3388.66
       SATURATED ZONE =        -680587.11         SATURATED ZONE =           1946.34

 OVERALL BUDGET ERROR =          -7569.30           BUDGET ERROR =             19.79


  PERCENT DISCREPANCY =             -0.05    PERCENT DISCREPANCY =              0.01



1
 SUMMARY VOLUMETRIC BUDGET FOR GSFLOW 
 DATE: 05 05 1981              CUMULATIVE TIME STEP:     217
 MODFLOW STRESS PERIOD      2     CURRENT TIME STEP:     217     ITERATIONS:      14

 -----------------------------------------------------------------------------------

   CUMULATIVE VOLUMES               L**3   RATES FOR THIS TIME STEP           L**3/T
   ------------------                      ------------------------

                                     IN                                         IN
                                     --                                         --
        PRECIPITATION =        1.6515D+07          PRECIPITATION =                  
           STREAMFLOW =                               STREAMFLOW =                  
     GW BOUNDARY FLOW =                         GW BOUNDARY FLOW =                  


                                    OUT                                        OUT
                                    ---                                        ---
   EVAPOTRANSPIRATION =        9878285.44     EVAPOTRANSPIRATION =          47102.08
           STREAMFLOW =        5822129.02             STREAMFLOW =          11726.12
     GW BOUNDARY FLOW =         141272.80       GW BOUNDARY FLOW =            649.02

   INFLOWS - OUTFLOWS =         673745.62     INFLOWS - OUTFLOWS =         -59477.21
             --------                                   --------

 TOTAL STORAGE CHANGE =         681226.10         STORAGE CHANGE =         -59480.96
       --------------                             --------------
         LAND SURFACE =         583908.85           LAND SURFACE =         -19597.75
            SOIL ZONE =        1390115.38              SOIL ZONE =         -23437.41
     UNSATURATED ZONE =        -605797.75       UNSATURATED ZONE =         -14492.30
       SATURATED ZONE =        -687000.39         SATURATED ZONE =          -1953.50

 OVERALL BUDGET ERROR =          -7480.47           BUDGET ERROR =              3.75


  PERCENT DISCREPANCY =             -0.05    PERCENT DISCREPANCY =              0.01



1
 SUMMARY VOLUMETRIC BUDGET FOR GSFLOW 
 DATE: 05 12 1981              CUMULATIVE TIME STEP:     224
 MODFLOW STRESS PERIOD      2     CURRENT TIME STEP:     224     ITERATIONS:      12

 -----------------------------------------------------------------------------------

   CUMULATIVE VOLUMES               L**3   RATES FOR THIS TIME STEP           L**3/T
   ------------------                      ------------------------

                                     IN                                         IN
                                     --                                         --
        PRECIPITATION =        1.6515D+07          PRECIPITATION =                  
           STREAMFLOW =                               STREAMFLOW =                  
     GW BOUNDARY FLOW =                         GW BOUNDARY FLOW =                  


                                    OUT                                        OUT
                                    ---                                        ---
   EVAPOTRANSPIRATION =        1.0411D+07     EVAPOTRANSPIRATION =         101887.15
           STREAMFLOW =        5903302.49             STREAMFLOW =          12843.69
     GW BOUNDARY FLOW =         145812.90       GW BOUNDARY FLOW =            648.49

   INFLOWS - OUTFLOWS =          55358.46     INFLOWS - OUTFLOWS =        -115379.33
             --------                                   --------

 TOTAL STORAGE CHANGE =          62789.43         STORAGE CHANGE =        -115380.69
       --------------                             --------------
         LAND SURFACE =         364139.11           LAND SURFACE =         -39545.56
            SOIL ZONE =        1107802.66              SOIL ZONE =         -61034.88
     UNSATURATED ZONE =        -700121.49       UNSATURATED ZONE =         -10751.77
       SATURATED ZONE =        -709030.86         SATURATED ZONE =          -4048.47

 OVERALL BUDGET ERROR =          -7430.97           BUDGET ERROR =              1.36


  PERCENT DISCREPANCY =             -0.04    PERCENT DISCREPANCY =              0.00



1
 SUMMARY VOLUMETRIC BUDGET FOR GSFLOW 
 DATE: 05 19 1981              CUMULATIVE TIME STEP:     231
 MODFLOW STRESS PERIOD      2     CURRENT TIME STEP:     231     ITERATIONS:      20

 -----------------------------------------------------------------------------------

   CUMULATIVE VOLUMES               L**3   RATES FOR THIS TIME STEP           L**3/T
   ------------------                      ------------------------

                                     IN                                         IN
                                     --                                         --
        PRECIPITATION =        1.7837D+07          PRECIPITATION =         169045.43
           STREAMFLOW =                               STREAMFLOW =                  
     GW BOUNDARY FLOW =                         GW BOUNDARY FLOW =                  


                                    OUT                                        OUT
                                    ---                                        ---
   EVAPOTRANSPIRATION =        1.0751D+07     EVAPOTRANSPIRATION =          31098.89
           STREAMFLOW =        6058023.51             STREAMFLOW =          31853.42
     GW BOUNDARY FLOW =         150354.58       GW BOUNDARY FLOW =            649.99

   INFLOWS - OUTFLOWS =         877340.38     INFLOWS - OUTFLOWS =         105443.12
             --------                                   --------

 TOTAL STORAGE CHANGE =         884749.12         STORAGE CHANGE =         105449.99
       --------------                             --------------
         LAND SURFACE =         315733.69           LAND SURFACE =          16905.78
            SOIL ZONE =        2049824.62              SOIL ZONE =          85739.74
     UNSATURATED ZONE =        -738986.43       UNSATURATED ZONE =           6639.65
       SATURATED ZONE =        -741822.76         SATURATED ZONE =          -3835.17

 OVERALL BUDGET ERROR =          -7408.74           BUDGET ERROR =             -6.87


  PERCENT DISCREPANCY =             -0.04    PERCENT DISCREPANCY =             -0.00



1
 SUMMARY VOLUMETRIC BUDGET FOR GSFLOW 
 DATE: 05 26 1981              CUMULATIVE TIME STEP:     238
 MODFLOW STRESS PERIOD      2     CURRENT TIME STEP:     238     ITERATIONS:      14

 -----------------------------------------------------------------------------------

   CUMULATIVE VOLUMES               L**3   RATES FOR THIS TIME STEP           L**3/T
   ------------------                      ------------------------

                                     IN                                         IN
                                     --                                         --
        PRECIPITATION =        1.8252D+07          PRECIPITATION =         284303.67
           STREAMFLOW =                               STREAMFLOW =                  
     GW BOUNDARY FLOW =                         GW BOUNDARY FLOW =                  


                                    OUT                                        OUT
                                    ---                                        ---
   EVAPOTRANSPIRATION =        1.1550D+07     EVAPOTRANSPIRATION =         126247.52
           STREAMFLOW =        6196202.54             STREAMFLOW =          24175.93
     GW BOUNDARY FLOW =         154898.96       GW BOUNDARY FLOW =            648.98

   INFLOWS - OUTFLOWS =         351180.37     INFLOWS - OUTFLOWS =         133231.24
             --------                                   --------

 TOTAL STORAGE CHANGE =         358593.68         STORAGE CHANGE =         133234.67
       --------------                             --------------
         LAND SURFACE =         197572.66           LAND SURFACE =         -13397.86
            SOIL ZONE =        1709818.30              SOIL ZONE =         158549.50
     UNSATURATED ZONE =        -768197.61       UNSATURATED ZONE =          -6780.29
       SATURATED ZONE =        -780599.67         SATURATED ZONE =          -5136.68

 OVERALL BUDGET ERROR =          -7413.31           BUDGET ERROR =             -3.43


  PERCENT DISCREPANCY =             -0.04    PERCENT DISCREPANCY =             -0.00



1
 SUMMARY VOLUMETRIC BUDGET FOR GSFLOW 
 DATE: 06 02 1981              CUMULATIVE TIME STEP:     245
 MODFLOW STRESS PERIOD      2     CURRENT TIME STEP:     245     ITERATIONS:      17

 -----------------------------------------------------------------------------------

   CUMULATIVE VOLUMES               L**3   RATES FOR THIS TIME STEP           L**3/T
   ------------------                      ------------------------

                                     IN                                         IN
                                     --                                         --
        PRECIPITATION =        1.8318D+07          PRECIPITATION =          50869.96
           STREAMFLOW =                               STREAMFLOW =                  
     GW BOUNDARY FLOW =                         GW BOUNDARY FLOW =                  


                                    OUT                                        OUT
                                    ---                                        ---
   EVAPOTRANSPIRATION =        1.2378D+07     EVAPOTRANSPIRATION =          66875.62
           STREAMFLOW =        6282584.73             STREAMFLOW =           9141.61
     GW BOUNDARY FLOW =         159436.88       GW BOUNDARY FLOW =            647.73

   INFLOWS - OUTFLOWS =        -501766.15     INFLOWS - OUTFLOWS =         -25795.00
             --------                                   --------

 TOTAL STORAGE CHANGE =        -494335.79         STORAGE CHANGE =         -25786.84
       --------------                             --------------
         LAND SURFACE =         119474.96           LAND SURFACE =          25659.25
            SOIL ZONE =        1064419.75              SOIL ZONE =         -31313.34
     UNSATURATED ZONE =        -847944.46       UNSATURATED ZONE =         -12410.79
       SATURATED ZONE =        -830286.04         SATURATED ZONE =          -7721.96

 OVERALL BUDGET ERROR =          -7430.36           BUDGET ERROR =             -8.17


  PERCENT DISCREPANCY =             -0.04    PERCENT DISCREPANCY =             -0.01



1
 SUMMARY VOLUMETRIC BUDGET FOR GSFLOW 
 DATE: 06 09 1981              CUMULATIVE TIME STEP:     252
 MODFLOW STRESS PERIOD      2     CURRENT TIME STEP:     252     ITERATIONS:      15

 -----------------------------------------------------------------------------------

   CUMULATIVE VOLUMES               L**3   RATES FOR THIS TIME STEP           L**3/T
   ------------------                      ------------------------

                                     IN                                         IN
                                     --                                         --
        PRECIPITATION =        1.8318D+07          PRECIPITATION =                  
           STREAMFLOW =                               STREAMFLOW =                  
     GW BOUNDARY FLOW =                         GW BOUNDARY FLOW =                  


                                    OUT                                        OUT
                                    ---                                        ---
   EVAPOTRANSPIRATION =        1.2929D+07     EVAPOTRANSPIRATION =          55651.09
           STREAMFLOW =        6337578.79             STREAMFLOW =           7234.07
     GW BOUNDARY FLOW =         163968.45       GW BOUNDARY FLOW =            647.16

   INFLOWS - OUTFLOWS =       -1112722.64     INFLOWS - OUTFLOWS =         -63532.32
             --------                                   --------

 TOTAL STORAGE CHANGE =       -1105286.68         STORAGE CHANGE =         -63534.95
       --------------                             --------------
         LAND SURFACE =          39669.52           LAND SURFACE =          -4382.74
            SOIL ZONE =         675403.71              SOIL ZONE =         -38605.10
     UNSATURATED ZONE =        -932424.37       UNSATURATED ZONE =         -12129.54
       SATURATED ZONE =        -887935.54         SATURATED ZONE =          -8417.56

 OVERALL BUDGET ERROR =          -7435.96           BUDGET ERROR =              2.63


  PERCENT DISCREPANCY =             -0.04    PERCENT DISCREPANCY =              0.00



1
 SUMMARY VOLUMETRIC BUDGET FOR GSFLOW 
 DATE: 06 16 1981              CUMULATIVE TIME STEP:     259
 MODFLOW STRESS PERIOD      2     CURRENT TIME STEP:     259     ITERATIONS:      13

 -----------------------------------------------------------------------------------

   CUMULATIVE VOLUMES               L**3   RATES FOR THIS TIME STEP           L**3/T
   ------------------                      ------------------------

                                     IN                                         IN
                                     --                                         --
        PRECIPITATION =        1.8318D+07          PRECIPITATION =                  
           STREAMFLOW =                               STREAMFLOW =                  
     GW BOUNDARY FLOW =                         GW BOUNDARY FLOW =                  


                                    OUT                                        OUT
                                    ---                                        ---
   EVAPOTRANSPIRATION =        1.3143D+07     EVAPOTRANSPIRATION =          49264.64
           STREAMFLOW =        6385387.99             STREAMFLOW =           6682.85
     GW BOUNDARY FLOW =         168497.38       GW BOUNDARY FLOW =            646.89

   INFLOWS - OUTFLOWS =       -1378244.95     INFLOWS - OUTFLOWS =         -56594.37
             --------                                   --------

 TOTAL STORAGE CHANGE =       -1370798.17         STORAGE CHANGE =         -56591.69
       --------------                             --------------
         LAND SURFACE =          25589.67           LAND SURFACE =          -3042.77
            SOIL ZONE =         573864.13              SOIL ZONE =         -31848.63
     UNSATURATED ZONE =       -1021595.09       UNSATURATED ZONE =         -12848.43
       SATURATED ZONE =        -948656.88         SATURATED ZONE =          -8851.87

 OVERALL BUDGET ERROR =          -7446.78           BUDGET ERROR =             -2.68


  PERCENT DISCREPANCY =             -0.04    PERCENT DISCREPANCY =             -0.00



1
 SUMMARY VOLUMETRIC BUDGET FOR GSFLOW 
 DATE: 06 23 1981              CUMULATIVE TIME STEP:     266
 MODFLOW STRESS PERIOD      2     CURRENT TIME STEP:     266     ITERATIONS:      18

 -----------------------------------------------------------------------------------

   CUMULATIVE VOLUMES               L**3   RATES FOR THIS TIME STEP           L**3/T
   ------------------                      ------------------------

                                     IN                                         IN
                                     --                                         --
        PRECIPITATION =        1.8318D+07          PRECIPITATION =                  
           STREAMFLOW =                               STREAMFLOW =                  
     GW BOUNDARY FLOW =                         GW BOUNDARY FLOW =                  


                                    OUT                                        OUT
                                    ---                                        ---
   EVAPOTRANSPIRATION =        1.3485D+07     EVAPOTRANSPIRATION =          40398.25
           STREAMFLOW =        6429850.72             STREAMFLOW =           6101.28
     GW BOUNDARY FLOW =         173024.70       GW BOUNDARY FLOW =            646.66

   INFLOWS - OUTFLOWS =       -1769920.72     INFLOWS - OUTFLOWS =         -47146.19
             --------                                   --------

 TOTAL STORAGE CHANGE =       -1762472.50         STORAGE CHANGE =         -47141.17
       --------------                             --------------
         LAND SURFACE =           6959.28           LAND SURFACE =          -1578.51
            SOIL ZONE =         354002.01              SOIL ZONE =         -23757.67
     UNSATURATED ZONE =       -1110278.76       UNSATURATED ZONE =         -12407.43
       SATURATED ZONE =       -1013155.03         SATURATED ZONE =          -9397.56

 OVERALL BUDGET ERROR =          -7448.22           BUDGET ERROR =             -5.02


  PERCENT DISCREPANCY =             -0.04    PERCENT DISCREPANCY =             -0.01



1
 SUMMARY VOLUMETRIC BUDGET FOR GSFLOW 
 DATE: 06 30 1981              CUMULATIVE TIME STEP:     273
 MODFLOW STRESS PERIOD      2     CURRENT TIME STEP:     273     ITERATIONS:      14

 -----------------------------------------------------------------------------------

   CUMULATIVE VOLUMES               L**3   RATES FOR THIS TIME STEP           L**3/T
   ------------------                      ------------------------

                                     IN                                         IN
[...]
                                    ---                                        ---
   EVAPOTRANSPIRATION =        2.8300D+08     EVAPOTRANSPIRATION =          49106.40
           STREAMFLOW =        1.8550D+08             STREAMFLOW =           7377.05
     GW BOUNDARY FLOW =        3737699.63       GW BOUNDARY FLOW =            651.35

   INFLOWS - OUTFLOWS =       -7171430.16     INFLOWS - OUTFLOWS =         -57134.80
             --------                                   --------

 TOTAL STORAGE CHANGE =       -7093984.59         STORAGE CHANGE =         -57155.16
       --------------                             --------------
         LAND SURFACE =         214963.45           LAND SURFACE =         -10645.32
            SOIL ZONE =         331591.32              SOIL ZONE =         -24976.88
     UNSATURATED ZONE =        5324381.26       UNSATURATED ZONE =         -28431.00
       SATURATED ZONE =       -1.2965D+07         SATURATED ZONE =           6898.05

 OVERALL BUDGET ERROR =         -77445.57           BUDGET ERROR =             20.36


  PERCENT DISCREPANCY =             -0.02    PERCENT DISCREPANCY =              0.04



1
 SUMMARY VOLUMETRIC BUDGET FOR GSFLOW 
 DATE: 07 30 1996              CUMULATIVE TIME STEP:    5782
 MODFLOW STRESS PERIOD      2     CURRENT TIME STEP:    5782     ITERATIONS:      15

 -----------------------------------------------------------------------------------

   CUMULATIVE VOLUMES               L**3   RATES FOR THIS TIME STEP           L**3/T
   ------------------                      ------------------------

                                     IN                                         IN
                                     --                                         --
        PRECIPITATION =        4.6511D+08          PRECIPITATION =                  
           STREAMFLOW =                               STREAMFLOW =                  
     GW BOUNDARY FLOW =                         GW BOUNDARY FLOW =                  


                                    OUT                                        OUT
                                    ---                                        ---
   EVAPOTRANSPIRATION =        2.8331D+08     EVAPOTRANSPIRATION =          33112.02
           STREAMFLOW =        1.8555D+08             STREAMFLOW =           7076.36
     GW BOUNDARY FLOW =        3742257.26       GW BOUNDARY FLOW =            650.92

   INFLOWS - OUTFLOWS =       -7485476.21     INFLOWS - OUTFLOWS =         -40839.30
             --------                                   --------

 TOTAL STORAGE CHANGE =       -7408164.68         STORAGE CHANGE =         -40865.97
       --------------                             --------------
         LAND SURFACE =         152309.38           LAND SURFACE =          -7555.65
            SOIL ZONE =         231684.92              SOIL ZONE =         -11744.07
     UNSATURATED ZONE =        5125761.15       UNSATURATED ZONE =         -27808.88
       SATURATED ZONE =       -1.2918D+07         SATURATED ZONE =           6242.63

 OVERALL BUDGET ERROR =         -77311.53           BUDGET ERROR =             26.67


  PERCENT DISCREPANCY =             -0.02    PERCENT DISCREPANCY =              0.07



1
 SUMMARY VOLUMETRIC BUDGET FOR GSFLOW 
 DATE: 08 06 1996              CUMULATIVE TIME STEP:    5789
 MODFLOW STRESS PERIOD      2     CURRENT TIME STEP:    5789     ITERATIONS:      15

 -----------------------------------------------------------------------------------

   CUMULATIVE VOLUMES               L**3   RATES FOR THIS TIME STEP           L**3/T
   ------------------                      ------------------------

                                     IN                                         IN
                                     --                                         --
        PRECIPITATION =        4.6511D+08          PRECIPITATION =                  
           STREAMFLOW =                               STREAMFLOW =                  
     GW BOUNDARY FLOW =                         GW BOUNDARY FLOW =                  


                                    OUT                                        OUT
                                    ---                                        ---
   EVAPOTRANSPIRATION =        2.8349D+08     EVAPOTRANSPIRATION =          26325.28
           STREAMFLOW =        1.8559D+08             STREAMFLOW =           6793.51
     GW BOUNDARY FLOW =        3746813.37       GW BOUNDARY FLOW =            650.81

   INFLOWS - OUTFLOWS =       -7724693.02     INFLOWS - OUTFLOWS =         -33769.60
             --------                                   --------

 TOTAL STORAGE CHANGE =       -7647514.38         STORAGE CHANGE =         -33793.79
       --------------                             --------------
         LAND SURFACE =         111776.46           LAND SURFACE =          -5017.65
            SOIL ZONE =         182443.96              SOIL ZONE =          -7542.55
     UNSATURATED ZONE =        4937220.26       UNSATURATED ZONE =         -26343.33
       SATURATED ZONE =       -1.2879D+07         SATURATED ZONE =           5109.73

 OVERALL BUDGET ERROR =         -77178.64           BUDGET ERROR =             24.19


  PERCENT DISCREPANCY =             -0.02    PERCENT DISCREPANCY =              0.07



1
 SUMMARY VOLUMETRIC BUDGET FOR GSFLOW 
 DATE: 08 13 1996              CUMULATIVE TIME STEP:    5796
 MODFLOW STRESS PERIOD      2     CURRENT TIME STEP:    5796     ITERATIONS:      15

 -----------------------------------------------------------------------------------

   CUMULATIVE VOLUMES               L**3   RATES FOR THIS TIME STEP           L**3/T
   ------------------                      ------------------------

                                     IN                                         IN
                                     --                                         --
        PRECIPITATION =        4.6531D+08          PRECIPITATION =          54454.08
           STREAMFLOW =                               STREAMFLOW =                  
     GW BOUNDARY FLOW =                         GW BOUNDARY FLOW =                  


                                    OUT                                        OUT
                                    ---                                        ---
   EVAPOTRANSPIRATION =        2.8371D+08     EVAPOTRANSPIRATION =          37164.98
           STREAMFLOW =        1.8564D+08             STREAMFLOW =           8000.02
     GW BOUNDARY FLOW =        3751368.53       GW BOUNDARY FLOW =            650.75

   INFLOWS - OUTFLOWS =       -7793060.15     INFLOWS - OUTFLOWS =           8638.34
             --------                                   --------

 TOTAL STORAGE CHANGE =       -7715962.82         STORAGE CHANGE =           8619.60
       --------------                             --------------
         LAND SURFACE =         105220.94           LAND SURFACE =          -5194.35
            SOIL ZONE =         267543.61              SOIL ZONE =          34629.45
     UNSATURATED ZONE =        4757246.99       UNSATURATED ZONE =         -25038.77
       SATURATED ZONE =       -1.2846D+07         SATURATED ZONE =           4223.26

 OVERALL BUDGET ERROR =         -77097.34           BUDGET ERROR =             18.74


  PERCENT DISCREPANCY =             -0.02    PERCENT DISCREPANCY =              0.03



1
 SUMMARY VOLUMETRIC BUDGET FOR GSFLOW 
 DATE: 08 20 1996              CUMULATIVE TIME STEP:    5803
 MODFLOW STRESS PERIOD      2     CURRENT TIME STEP:    5803     ITERATIONS:      14

 -----------------------------------------------------------------------------------

   CUMULATIVE VOLUMES               L**3   RATES FOR THIS TIME STEP           L**3/T
   ------------------                      ------------------------

                                     IN                                         IN
                                     --                                         --
        PRECIPITATION =        4.6531D+08          PRECIPITATION =                  
           STREAMFLOW =                               STREAMFLOW =                  
     GW BOUNDARY FLOW =                         GW BOUNDARY FLOW =                  


                                    OUT                                        OUT
                                    ---                                        ---
   EVAPOTRANSPIRATION =        2.8393D+08     EVAPOTRANSPIRATION =          18565.60
           STREAMFLOW =        1.8569D+08             STREAMFLOW =           6546.74
     GW BOUNDARY FLOW =        3755922.03       GW BOUNDARY FLOW =            650.32

   INFLOWS - OUTFLOWS =       -8062607.06     INFLOWS - OUTFLOWS =         -25762.65
             --------                                   --------

 TOTAL STORAGE CHANGE =       -7985614.24         STORAGE CHANGE =         -25779.92
       --------------                             --------------
         LAND SURFACE =          44442.31           LAND SURFACE =          -2851.34
            SOIL ZONE =         204041.41              SOIL ZONE =          -2274.61
     UNSATURATED ZONE =        4586924.51       UNSATURATED ZONE =         -23873.68
       SATURATED ZONE =       -1.2821D+07         SATURATED ZONE =           3219.72

 OVERALL BUDGET ERROR =         -76992.82           BUDGET ERROR =             17.27


  PERCENT DISCREPANCY =             -0.02    PERCENT DISCREPANCY =              0.07



1
 SUMMARY VOLUMETRIC BUDGET FOR GSFLOW 
 DATE: 08 27 1996              CUMULATIVE TIME STEP:    5810
 MODFLOW STRESS PERIOD      2     CURRENT TIME STEP:    5810     ITERATIONS:      13

 -----------------------------------------------------------------------------------

   CUMULATIVE VOLUMES               L**3   RATES FOR THIS TIME STEP           L**3/T
   ------------------                      ------------------------

                                     IN                                         IN
                                     --                                         --
        PRECIPITATION =        4.6531D+08          PRECIPITATION =                  
           STREAMFLOW =                               STREAMFLOW =                  
     GW BOUNDARY FLOW =                         GW BOUNDARY FLOW =                  


                                    OUT                                        OUT
                                    ---                                        ---
   EVAPOTRANSPIRATION =        2.8409D+08     EVAPOTRANSPIRATION =          18472.49
           STREAMFLOW =        1.8574D+08             STREAMFLOW =           6380.82
     GW BOUNDARY FLOW =        3760472.64       GW BOUNDARY FLOW =            649.92

   INFLOWS - OUTFLOWS =       -8271908.54     INFLOWS - OUTFLOWS =         -25503.23
             --------                                   --------

 TOTAL STORAGE CHANGE =       -8195049.44         STORAGE CHANGE =         -25521.70
       --------------                             --------------
         LAND SURFACE =          21435.24           LAND SURFACE =          -2621.72
            SOIL ZONE =         161143.09              SOIL ZONE =          -2505.78
     UNSATURATED ZONE =        4426078.45       UNSATURATED ZONE =         -22447.11
       SATURATED ZONE =       -1.2804D+07         SATURATED ZONE =           2052.92

 OVERALL BUDGET ERROR =         -76859.10           BUDGET ERROR =             18.47


  PERCENT DISCREPANCY =             -0.02    PERCENT DISCREPANCY =              0.07



1
 SUMMARY VOLUMETRIC BUDGET FOR GSFLOW 
 DATE: 09 03 1996              CUMULATIVE TIME STEP:    5817
 MODFLOW STRESS PERIOD      2     CURRENT TIME STEP:    5817     ITERATIONS:      13

 -----------------------------------------------------------------------------------

   CUMULATIVE VOLUMES               L**3   RATES FOR THIS TIME STEP           L**3/T
   ------------------                      ------------------------

                                     IN                                         IN
                                     --                                         --
        PRECIPITATION =        4.6531D+08          PRECIPITATION =                  
           STREAMFLOW =                               STREAMFLOW =                  
     GW BOUNDARY FLOW =                         GW BOUNDARY FLOW =                  


                                    OUT                                        OUT
                                    ---                                        ---
   EVAPOTRANSPIRATION =        2.8421D+08     EVAPOTRANSPIRATION =          15704.36
           STREAMFLOW =        1.8578D+08             STREAMFLOW =           6266.78
     GW BOUNDARY FLOW =        3765020.45       GW BOUNDARY FLOW =            649.51

   INFLOWS - OUTFLOWS =       -8442750.19     INFLOWS - OUTFLOWS =         -22620.66
             --------                                   --------

 TOTAL STORAGE CHANGE =       -8366038.93         STORAGE CHANGE =         -22638.69
       --------------                             --------------
         LAND SURFACE =           7240.32           LAND SURFACE =          -1278.90
            SOIL ZONE =         146149.09              SOIL ZONE =          -1207.45
     UNSATURATED ZONE =        4271909.93       UNSATURATED ZONE =         -21794.26
       SATURATED ZONE =       -1.2791D+07         SATURATED ZONE =           1641.93

 OVERALL BUDGET ERROR =         -76711.26           BUDGET ERROR =             18.03


  PERCENT DISCREPANCY =             -0.02    PERCENT DISCREPANCY =              0.08



1
 SUMMARY VOLUMETRIC BUDGET FOR GSFLOW 
 DATE: 09 10 1996              CUMULATIVE TIME STEP:    5824
 MODFLOW STRESS PERIOD      2     CURRENT TIME STEP:    5824     ITERATIONS:      12

 -----------------------------------------------------------------------------------

   CUMULATIVE VOLUMES               L**3   RATES FOR THIS TIME STEP           L**3/T
   ------------------                      ------------------------

                                     IN                                         IN
                                     --                                         --
        PRECIPITATION =        4.6531D+08          PRECIPITATION =                  
           STREAMFLOW =                               STREAMFLOW =                  
     GW BOUNDARY FLOW =                         GW BOUNDARY FLOW =                  


                                    OUT                                        OUT
                                    ---                                        ---
   EVAPOTRANSPIRATION =        2.8430D+08     EVAPOTRANSPIRATION =          15133.92
           STREAMFLOW =        1.8582D+08             STREAMFLOW =           6157.78
     GW BOUNDARY FLOW =        3769565.53       GW BOUNDARY FLOW =            649.13

   INFLOWS - OUTFLOWS =       -8580408.56     INFLOWS - OUTFLOWS =         -21940.82
             --------                                   --------

 TOTAL STORAGE CHANGE =       -8503863.66         STORAGE CHANGE =         -21970.32
       --------------                             --------------
         LAND SURFACE =           2510.71           LAND SURFACE =           -704.62
            SOIL ZONE =         153232.18              SOIL ZONE =          -1331.47
     UNSATURATED ZONE =        4122769.66       UNSATURATED ZONE =         -20903.07
       SATURATED ZONE =       -1.2782D+07         SATURATED ZONE =            968.85

 OVERALL BUDGET ERROR =         -76544.90           BUDGET ERROR =             29.49


  PERCENT DISCREPANCY =             -0.02    PERCENT DISCREPANCY =              0.13



1
 SUMMARY VOLUMETRIC BUDGET FOR GSFLOW 
 DATE: 09 17 1996              CUMULATIVE TIME STEP:    5831
 MODFLOW STRESS PERIOD      2     CURRENT TIME STEP:    5831     ITERATIONS:      12

 -----------------------------------------------------------------------------------

   CUMULATIVE VOLUMES               L**3   RATES FOR THIS TIME STEP           L**3/T
   ------------------                      ------------------------

                                     IN                                         IN
                                     --                                         --
        PRECIPITATION =        4.6637D+08          PRECIPITATION =                  
           STREAMFLOW =                               STREAMFLOW =                  
     GW BOUNDARY FLOW =                         GW BOUNDARY FLOW =                  


                                    OUT                                        OUT
                                    ---                                        ---
   EVAPOTRANSPIRATION =        2.8447D+08     EVAPOTRANSPIRATION =          52774.70
           STREAMFLOW =        1.8589D+08             STREAMFLOW =          10314.84
     GW BOUNDARY FLOW =        3774109.87       GW BOUNDARY FLOW =            649.53

   INFLOWS - OUTFLOWS =       -7769523.96     INFLOWS - OUTFLOWS =         -63739.08
             --------                                   --------

 TOTAL STORAGE CHANGE =       -7693171.00         STORAGE CHANGE =         -63763.08
       --------------                             --------------
         LAND SURFACE =            882.14           LAND SURFACE =         -33826.70
            SOIL ZONE =        1102185.85              SOIL ZONE =         -10240.67
     UNSATURATED ZONE =        3978470.37       UNSATURATED ZONE =         -20110.27
       SATURATED ZONE =       -1.2775D+07         SATURATED ZONE =            414.57

 OVERALL BUDGET ERROR =         -76352.96           BUDGET ERROR =             24.00


  PERCENT DISCREPANCY =             -0.02    PERCENT DISCREPANCY =              0.04



1
 SUMMARY VOLUMETRIC BUDGET FOR GSFLOW 
 DATE: 09 24 1996              CUMULATIVE TIME STEP:    5838
 MODFLOW STRESS PERIOD      2     CURRENT TIME STEP:    5838     ITERATIONS:      12

 -----------------------------------------------------------------------------------

   CUMULATIVE VOLUMES               L**3   RATES FOR THIS TIME STEP           L**3/T
   ------------------                      ------------------------

                                     IN                                         IN
                                     --                                         --
        PRECIPITATION =        4.6637D+08          PRECIPITATION =                  
           STREAMFLOW =                               STREAMFLOW =                  
     GW BOUNDARY FLOW =                         GW BOUNDARY FLOW =                  


                                    OUT                                        OUT
                                    ---                                        ---
   EVAPOTRANSPIRATION =        2.8496D+08     EVAPOTRANSPIRATION =          56270.54
           STREAMFLOW =        1.8595D+08             STREAMFLOW =           6726.32
     GW BOUNDARY FLOW =        3778652.65       GW BOUNDARY FLOW =            648.63

   INFLOWS - OUTFLOWS =       -8320554.83     INFLOWS - OUTFLOWS =         -63645.49
             --------                                   --------

 TOTAL STORAGE CHANGE =       -8244400.42         STORAGE CHANGE =         -63674.40
       --------------                             --------------
         LAND SURFACE =                             LAND SURFACE =                  
            SOIL ZONE =         689073.94              SOIL ZONE =         -44151.62
     UNSATURATED ZONE =        3841086.01       UNSATURATED ZONE =         -19270.36
       SATURATED ZONE =       -1.2775D+07         SATURATED ZONE =           -252.43

 OVERALL BUDGET ERROR =         -76154.41           BUDGET ERROR =             28.91


  PERCENT DISCREPANCY =             -0.02    PERCENT DISCREPANCY =              0.05



