1
 SUMMARY VOLUMETRIC BUDGET FOR GSFLOW 
 DATE: 10 07 1980              CUMULATIVE TIME STEP:       7
 MODFLOW STRESS PERIOD      2     CURRENT TIME STEP:       7     ITERATIONS:       6

 -----------------------------------------------------------------------------------

   CUMULATIVE VOLUMES               L**3   RATES FOR THIS TIME STEP           L**3/T
   ------------------                      ------------------------

                                     IN                                         IN
                                     --                                         --
        PRECIPITATION =                            PRECIPITATION =                  
           STREAMFLOW =                               STREAMFLOW =                  
     GW BOUNDARY FLOW =                         GW BOUNDARY FLOW =                  


                                    OUT                                        OUT
                                    ---                                        ---
   EVAPOTRANSPIRATION =          63501.87     EVAPOTRANSPIRATION =           9679.38
           STREAMFLOW =          42957.63             STREAMFLOW =           6065.77
     GW BOUNDARY FLOW =           4541.44       GW BOUNDARY FLOW =            648.70

   INFLOWS - OUTFLOWS =        -111000.94     INFLOWS - OUTFLOWS =         -16393.85
             --------                                   --------

 TOTAL STORAGE CHANGE =        -110545.15         STORAGE CHANGE =         -16325.53
       --------------                             --------------
         LAND SURFACE =                             LAND SURFACE =                  
            SOIL ZONE =          47015.18              SOIL ZONE =           6017.04
     UNSATURATED ZONE =        -144777.37       UNSATURATED ZONE =         -20360.11
       SATURATED ZONE =         -12782.96         SATURATED ZONE =          -1982.46

 OVERALL BUDGET ERROR =           -455.78           BUDGET ERROR =            -68.32


  PERCENT DISCREPANCY =             -0.41    PERCENT DISCREPANCY =             -0.42



1
 SUMMARY VOLUMETRIC BUDGET FOR GSFLOW 
 DATE: 10 14 1980              CUMULATIVE TIME STEP:      14
 MODFLOW STRESS PERIOD      2     CURRENT TIME STEP:      14     ITERATIONS:       6

 -----------------------------------------------------------------------------------

   CUMULATIVE VOLUMES               L**3   RATES FOR THIS TIME STEP           L**3/T
   ------------------                      ------------------------

                                     IN                                         IN
                                     --                                         --
        PRECIPITATION =         650779.83          PRECIPITATION =         164754.40
           STREAMFLOW =                               STREAMFLOW =                  
     GW BOUNDARY FLOW =                         GW BOUNDARY FLOW =                  


                                    OUT                                        OUT
                                    ---                                        ---
   EVAPOTRANSPIRATION =         147518.25     EVAPOTRANSPIRATION =           7886.47
           STREAMFLOW =          92677.70             STREAMFLOW =           7494.65
     GW BOUNDARY FLOW =           9082.78       GW BOUNDARY FLOW =            648.89

   INFLOWS - OUTFLOWS =         401501.11     INFLOWS - OUTFLOWS =         148724.38
             --------                                   --------

 TOTAL STORAGE CHANGE =         402471.62         STORAGE CHANGE =         148798.38
       --------------                             --------------
         LAND SURFACE =         277689.24           LAND SURFACE =         136623.45
            SOIL ZONE =         436909.23              SOIL ZONE =          34192.78
     UNSATURATED ZONE =        -284452.37       UNSATURATED ZONE =         -19623.49
       SATURATED ZONE =         -27674.48         SATURATED ZONE =          -2394.36

 OVERALL BUDGET ERROR =           -970.52           BUDGET ERROR =            -73.99


  PERCENT DISCREPANCY =             -0.15    PERCENT DISCREPANCY =             -0.04



1
 SUMMARY VOLUMETRIC BUDGET FOR GSFLOW 
 DATE: 10 21 1980              CUMULATIVE TIME STEP:      21
 MODFLOW STRESS PERIOD      2     CURRENT TIME STEP:      21     ITERATIONS:       6

 -----------------------------------------------------------------------------------

   CUMULATIVE VOLUMES               L**3   RATES FOR THIS TIME STEP           L**3/T
   ------------------                      ------------------------

                                     IN                                         IN
                                     --                                         --
        PRECIPITATION =         733157.03          PRECIPITATION =                  
           STREAMFLOW =                               STREAMFLOW =                  
     GW BOUNDARY FLOW =                         GW BOUNDARY FLOW =                  


                                    OUT                                        OUT
                                    ---                                        ---
   EVAPOTRANSPIRATION =         373106.44     EVAPOTRANSPIRATION =          36446.75
           STREAMFLOW =         144889.97             STREAMFLOW =           7105.83
     GW BOUNDARY FLOW =          13624.56       GW BOUNDARY FLOW =            648.77

   INFLOWS - OUTFLOWS =         201536.05     INFLOWS - OUTFLOWS =         -44201.35
             --------                                   --------

 TOTAL STORAGE CHANGE =         203016.17         STORAGE CHANGE =         -44120.61
       --------------                             --------------
         LAND SURFACE =           2250.88           LAND SURFACE =          -3153.72
            SOIL ZONE =         665732.85              SOIL ZONE =         -19175.28
     UNSATURATED ZONE =        -418622.05       UNSATURATED ZONE =         -18801.05
       SATURATED ZONE =         -46345.52         SATURATED ZONE =          -2990.56

 OVERALL BUDGET ERROR =          -1480.12           BUDGET ERROR =            -80.74


  PERCENT DISCREPANCY =             -0.20    PERCENT DISCREPANCY =             -0.18



1
 SUMMARY VOLUMETRIC BUDGET FOR GSFLOW 
 DATE: 10 28 1980              CUMULATIVE TIME STEP:      28
 MODFLOW STRESS PERIOD      2     CURRENT TIME STEP:      28     ITERATIONS:       6

 -----------------------------------------------------------------------------------

   CUMULATIVE VOLUMES               L**3   RATES FOR THIS TIME STEP           L**3/T
   ------------------                      ------------------------

                                     IN                                         IN
                                     --                                         --
        PRECIPITATION =        1070903.53          PRECIPITATION =                  
           STREAMFLOW =                               STREAMFLOW =                  
     GW BOUNDARY FLOW =                         GW BOUNDARY FLOW =                  


                                    OUT                                        OUT
                                    ---                                        ---
   EVAPOTRANSPIRATION =         550293.56     EVAPOTRANSPIRATION =          23594.60
           STREAMFLOW =         199833.49             STREAMFLOW =           7989.29
     GW BOUNDARY FLOW =          18165.91       GW BOUNDARY FLOW =            648.81

   INFLOWS - OUTFLOWS =         302610.56     INFLOWS - OUTFLOWS =         -32232.70
             --------                                   --------

 TOTAL STORAGE CHANGE =         304662.04         STORAGE CHANGE =         -32146.02
       --------------                             --------------
         LAND SURFACE =          24619.51           LAND SURFACE =         -30948.99
            SOIL ZONE =         896185.45              SOIL ZONE =          20270.79
     UNSATURATED ZONE =        -547225.20       UNSATURATED ZONE =         -17994.12
       SATURATED ZONE =         -68917.73         SATURATED ZONE =          -3473.70

 OVERALL BUDGET ERROR =          -2051.48           BUDGET ERROR =            -86.67


  PERCENT DISCREPANCY =             -0.19    PERCENT DISCREPANCY =             -0.27



1
 SUMMARY VOLUMETRIC BUDGET FOR GSFLOW 
 DATE: 11 04 1980              CUMULATIVE TIME STEP:      35
 MODFLOW STRESS PERIOD      2     CURRENT TIME STEP:      35     ITERATIONS:       8

 -----------------------------------------------------------------------------------

   CUMULATIVE VOLUMES               L**3   RATES FOR THIS TIME STEP           L**3/T
   ------------------                      ------------------------

                                     IN                                         IN
                                     --                                         --
        PRECIPITATION =        1070903.53          PRECIPITATION =                  
           STREAMFLOW =                               STREAMFLOW =                  
     GW BOUNDARY FLOW =                         GW BOUNDARY FLOW =                  


                                    OUT                                        OUT
                                    ---                                        ---
   EVAPOTRANSPIRATION =         825642.58     EVAPOTRANSPIRATION =          34462.44
           STREAMFLOW =         252301.20             STREAMFLOW =           7018.29
     GW BOUNDARY FLOW =          22706.92       GW BOUNDARY FLOW =            648.64

   INFLOWS - OUTFLOWS =         -29747.18     INFLOWS - OUTFLOWS =         -42129.38
             --------                                   --------

 TOTAL STORAGE CHANGE =         -27204.94         STORAGE CHANGE =         -42067.20
       --------------                             --------------
         LAND SURFACE =                             LAND SURFACE =                  
            SOIL ZONE =         739552.01              SOIL ZONE =         -20541.37
     UNSATURATED ZONE =        -670653.09       UNSATURATED ZONE =         -17361.18
       SATURATED ZONE =         -96103.86         SATURATED ZONE =          -4164.65

 OVERALL BUDGET ERROR =          -2542.24           BUDGET ERROR =            -62.18


  PERCENT DISCREPANCY =             -0.23    PERCENT DISCREPANCY =             -0.15



1
 SUMMARY VOLUMETRIC BUDGET FOR GSFLOW 
 DATE: 11 11 1980              CUMULATIVE TIME STEP:      42
 MODFLOW STRESS PERIOD      2     CURRENT TIME STEP:      42     ITERATIONS:       7

 -----------------------------------------------------------------------------------

   CUMULATIVE VOLUMES               L**3   RATES FOR THIS TIME STEP           L**3/T
   ------------------                      ------------------------

                                     IN                                         IN
                                     --                                         --
        PRECIPITATION =        1573762.54          PRECIPITATION =         255182.19
           STREAMFLOW =                               STREAMFLOW =                  
     GW BOUNDARY FLOW =                         GW BOUNDARY FLOW =                  


                                    OUT                                        OUT
                                    ---                                        ---
   EVAPOTRANSPIRATION =        1024610.60     EVAPOTRANSPIRATION =          14645.83
           STREAMFLOW =         308277.44             STREAMFLOW =          10773.74
     GW BOUNDARY FLOW =          27247.64       GW BOUNDARY FLOW =            648.84

   INFLOWS - OUTFLOWS =         213626.86     INFLOWS - OUTFLOWS =         229113.78
             --------                                   --------

 TOTAL STORAGE CHANGE =         216714.62         STORAGE CHANGE =         229178.41
       --------------                             --------------
         LAND SURFACE =          78612.95           LAND SURFACE =          76659.87
            SOIL ZONE =        1053407.53              SOIL ZONE =         173142.29
     UNSATURATED ZONE =        -789255.30       UNSATURATED ZONE =         -16535.15
       SATURATED ZONE =        -126050.56         SATURATED ZONE =          -4088.60

 OVERALL BUDGET ERROR =          -3087.76           BUDGET ERROR =            -64.63


  PERCENT DISCREPANCY =             -0.20    PERCENT DISCREPANCY =             -0.03



1
 SUMMARY VOLUMETRIC BUDGET FOR GSFLOW 
 DATE: 11 18 1980              CUMULATIVE TIME STEP:      49
 MODFLOW STRESS PERIOD      2     CURRENT TIME STEP:      49     ITERATIONS:       7

 -----------------------------------------------------------------------------------

   CUMULATIVE VOLUMES               L**3   RATES FOR THIS TIME STEP           L**3/T
   ------------------                      ------------------------

                                     IN                                         IN
                                     --                                         --
        PRECIPITATION =        1573762.54          PRECIPITATION =                  
           STREAMFLOW =                               STREAMFLOW =                  
     GW BOUNDARY FLOW =                         GW BOUNDARY FLOW =                  


                                    OUT                                        OUT
                                    ---                                        ---
   EVAPOTRANSPIRATION =        1113101.48     EVAPOTRANSPIRATION =          16687.24
           STREAMFLOW =         371219.26             STREAMFLOW =           9364.82
     GW BOUNDARY FLOW =          31789.52       GW BOUNDARY FLOW =            648.86

   INFLOWS - OUTFLOWS =          57652.28     INFLOWS - OUTFLOWS =         -26700.92
             --------                                   --------

 TOTAL STORAGE CHANGE =          61348.10         STORAGE CHANGE =         -26624.93
       --------------                             --------------
         LAND SURFACE =           8654.86           LAND SURFACE =          -6203.23
            SOIL ZONE =        1114559.67              SOIL ZONE =            419.01
     UNSATURATED ZONE =        -903158.34       UNSATURATED ZONE =         -16016.65
       SATURATED ZONE =        -158708.08         SATURATED ZONE =          -4824.06

 OVERALL BUDGET ERROR =          -3695.82           BUDGET ERROR =            -75.99


  PERCENT DISCREPANCY =             -0.23    PERCENT DISCREPANCY =             -0.28



1
 SUMMARY VOLUMETRIC BUDGET FOR GSFLOW 
 DATE: 11 25 1980              CUMULATIVE TIME STEP:      56
 MODFLOW STRESS PERIOD      2     CURRENT TIME STEP:      56     ITERATIONS:       8

 -----------------------------------------------------------------------------------

   CUMULATIVE VOLUMES               L**3   RATES FOR THIS TIME STEP           L**3/T
   ------------------                      ------------------------

                                     IN                                         IN
                                     --                                         --
        PRECIPITATION =        1648816.13          PRECIPITATION =                  
           STREAMFLOW =                               STREAMFLOW =                  
     GW BOUNDARY FLOW =                         GW BOUNDARY FLOW =                  


                                    OUT                                        OUT
                                    ---                                        ---
   EVAPOTRANSPIRATION =        1185742.17     EVAPOTRANSPIRATION =           8792.25
           STREAMFLOW =         438523.49             STREAMFLOW =           9976.17
     GW BOUNDARY FLOW =          36331.82       GW BOUNDARY FLOW =            648.94

   INFLOWS - OUTFLOWS =         -11781.35     INFLOWS - OUTFLOWS =         -19417.36
             --------                                   --------

 TOTAL STORAGE CHANGE =          -7552.32         STORAGE CHANGE =         -19353.05
       --------------                             --------------
         LAND SURFACE =          55166.83           LAND SURFACE =          -8744.58
            SOIL ZONE =        1144801.91              SOIL ZONE =          10128.16
     UNSATURATED ZONE =       -1012779.74       UNSATURATED ZONE =         -15405.64
       SATURATED ZONE =        -194741.32         SATURATED ZONE =          -5330.99

 OVERALL BUDGET ERROR =          -4229.03           BUDGET ERROR =            -64.31


  PERCENT DISCREPANCY =             -0.25    PERCENT DISCREPANCY =             -0.33



1
 SUMMARY VOLUMETRIC BUDGET FOR GSFLOW 
 DATE: 12 02 1980              CUMULATIVE TIME STEP:      63
 MODFLOW STRESS PERIOD      2     CURRENT TIME STEP:      63     ITERATIONS:       8

 -----------------------------------------------------------------------------------

   CUMULATIVE VOLUMES               L**3   RATES FOR THIS TIME STEP           L**3/T
   ------------------                      ------------------------

                                     IN                                         IN
                                     --                                         --
        PRECIPITATION =        2076621.55          PRECIPITATION =                  
           STREAMFLOW =                               STREAMFLOW =                  
     GW BOUNDARY FLOW =                         GW BOUNDARY FLOW =                  


                                    OUT                                        OUT
                                    ---                                        ---
   EVAPOTRANSPIRATION =        1375203.96     EVAPOTRANSPIRATION =          33951.96
           STREAMFLOW =         523914.95             STREAMFLOW =          15368.17
     GW BOUNDARY FLOW =          40875.80       GW BOUNDARY FLOW =            649.45

   INFLOWS - OUTFLOWS =         136626.84     INFLOWS - OUTFLOWS =         -49969.58
             --------                                   --------

 TOTAL STORAGE CHANGE =         141298.37         STORAGE CHANGE =         -49918.08
       --------------                             --------------
         LAND SURFACE =         152551.10           LAND SURFACE =         -75205.42
            SOIL ZONE =        1333563.53              SOIL ZONE =          42839.07
     UNSATURATED ZONE =       -1114204.23       UNSATURATED ZONE =         -12953.88
       SATURATED ZONE =        -230612.03         SATURATED ZONE =          -4597.84

 OVERALL BUDGET ERROR =          -4671.53           BUDGET ERROR =            -51.50


  PERCENT DISCREPANCY =             -0.22    PERCENT DISCREPANCY =             -0.10



1
 SUMMARY VOLUMETRIC BUDGET FOR GSFLOW 
 DATE: 12 09 1980              CUMULATIVE TIME STEP:      70
 MODFLOW STRESS PERIOD      2     CURRENT TIME STEP:      70     ITERATIONS:       8

 -----------------------------------------------------------------------------------

   CUMULATIVE VOLUMES               L**3   RATES FOR THIS TIME STEP           L**3/T
   ------------------                      ------------------------

                                     IN                                         IN
                                     --                                         --
        PRECIPITATION =        4284363.63          PRECIPITATION =                  
           STREAMFLOW =                               STREAMFLOW =                  
     GW BOUNDARY FLOW =                         GW BOUNDARY FLOW =                  


                                    OUT                                        OUT
                                    ---                                        ---
   EVAPOTRANSPIRATION =        1398622.33     EVAPOTRANSPIRATION =           2942.43
           STREAMFLOW =         624562.64             STREAMFLOW =          14710.50
     GW BOUNDARY FLOW =          45422.80       GW BOUNDARY FLOW =            649.67

   INFLOWS - OUTFLOWS =        2215755.86     INFLOWS - OUTFLOWS =         -18302.60
             --------                                   --------

 TOTAL STORAGE CHANGE =        2220886.79         STORAGE CHANGE =         -18250.98
       --------------                             --------------
         LAND SURFACE =        2335216.87           LAND SURFACE =          -2942.43
            SOIL ZONE =        1367919.74              SOIL ZONE =           4916.72
     UNSATURATED ZONE =       -1212495.90       UNSATURATED ZONE =         -14224.41
       SATURATED ZONE =        -269753.92         SATURATED ZONE =          -6000.87

 OVERALL BUDGET ERROR =          -5130.93           BUDGET ERROR =            -51.62


  PERCENT DISCREPANCY =             -0.12    PERCENT DISCREPANCY =             -0.28



1
 SUMMARY VOLUMETRIC BUDGET FOR GSFLOW 
 DATE: 12 16 1980              CUMULATIVE TIME STEP:      77
 MODFLOW STRESS PERIOD      2     CURRENT TIME STEP:      77     ITERATIONS:       7

 -----------------------------------------------------------------------------------

   CUMULATIVE VOLUMES               L**3   RATES FOR THIS TIME STEP           L**3/T
   ------------------                      ------------------------

                                     IN                                         IN
                                     --                                         --
        PRECIPITATION =        4284363.63          PRECIPITATION =                  
           STREAMFLOW =                               STREAMFLOW =                  
     GW BOUNDARY FLOW =                         GW BOUNDARY FLOW =                  


                                    OUT                                        OUT
                                    ---                                        ---
   EVAPOTRANSPIRATION =        1540616.22     EVAPOTRANSPIRATION =          33883.35
           STREAMFLOW =         746419.73             STREAMFLOW =          25216.13
     GW BOUNDARY FLOW =          49971.61       GW BOUNDARY FLOW =            650.27

   INFLOWS - OUTFLOWS =        1947356.07     INFLOWS - OUTFLOWS =         -59749.75
             --------                                   --------

 TOTAL STORAGE CHANGE =        1952918.49         STORAGE CHANGE =         -59684.33
       --------------                             --------------
         LAND SURFACE =        2023939.67           LAND SURFACE =        -129021.52
            SOIL ZONE =        1541256.08              SOIL ZONE =          82705.68
     UNSATURATED ZONE =       -1302229.62       UNSATURATED ZONE =          -8986.00
       SATURATED ZONE =        -310047.63         SATURATED ZONE =          -4382.49

 OVERALL BUDGET ERROR =          -5562.42           BUDGET ERROR =            -65.43


  PERCENT DISCREPANCY =             -0.13    PERCENT DISCREPANCY =             -0.11



1
 SUMMARY VOLUMETRIC BUDGET FOR GSFLOW 
 DATE: 12 23 1980              CUMULATIVE TIME STEP:      84
 MODFLOW STRESS PERIOD      2     CURRENT TIME STEP:      84     ITERATIONS:       9

 -----------------------------------------------------------------------------------

   CUMULATIVE VOLUMES               L**3   RATES FOR THIS TIME STEP           L**3/T
   ------------------                      ------------------------

                                     IN                                         IN
                                     --                                         --
        PRECIPITATION =        4516757.54          PRECIPITATION =                  
           STREAMFLOW =                               STREAMFLOW =                  
     GW BOUNDARY FLOW =                         GW BOUNDARY FLOW =                  


                                    OUT                                        OUT
                                    ---                                        ---
   EVAPOTRANSPIRATION =        1746658.38     EVAPOTRANSPIRATION =          35140.32
           STREAMFLOW =         975464.30             STREAMFLOW =          30480.17
     GW BOUNDARY FLOW =          54532.14       GW BOUNDARY FLOW =            651.94

   INFLOWS - OUTFLOWS =        1740102.72     INFLOWS - OUTFLOWS =         -66272.43
             --------                                   --------

 TOTAL STORAGE CHANGE =        1745984.83         STORAGE CHANGE =         -66234.59
       --------------                             --------------
         LAND SURFACE =        1433268.50           LAND SURFACE =         -48191.47
            SOIL ZONE =        1993544.59              SOIL ZONE =          -8134.02
     UNSATURATED ZONE =       -1342656.03       UNSATURATED ZONE =          -5276.64
       SATURATED ZONE =        -338172.23         SATURATED ZONE =          -4632.46

 OVERALL BUDGET ERROR =          -5882.11           BUDGET ERROR =            -37.84


  PERCENT DISCREPANCY =             -0.13    PERCENT DISCREPANCY =             -0.06



1
 SUMMARY VOLUMETRIC BUDGET FOR GSFLOW 
 DATE: 12 30 1980              CUMULATIVE TIME STEP:      91
 MODFLOW STRESS PERIOD      2     CURRENT TIME STEP:      91     ITERATIONS:      11

 -----------------------------------------------------------------------------------

   CUMULATIVE VOLUMES               L**3   RATES FOR THIS TIME STEP           L**3/T
   ------------------                      ------------------------

                                     IN                                         IN
                                     --                                         --
        PRECIPITATION =        4516757.54          PRECIPITATION =                  
           STREAMFLOW =                               STREAMFLOW =                  
     GW BOUNDARY FLOW =                         GW BOUNDARY FLOW =                  


                                    OUT                                        OUT
                                    ---                                        ---
   EVAPOTRANSPIRATION =        2107290.88     EVAPOTRANSPIRATION =          45887.78
           STREAMFLOW =        1224101.25             STREAMFLOW =          27636.30
     GW BOUNDARY FLOW =          59099.13       GW BOUNDARY FLOW =            652.41

   INFLOWS - OUTFLOWS =        1126266.28     INFLOWS - OUTFLOWS =         -74176.49
             --------                                   --------

 TOTAL STORAGE CHANGE =        1132317.26         STORAGE CHANGE =         -74149.27
       --------------                             --------------
         LAND SURFACE =         641159.81           LAND SURFACE =         -40370.18
            SOIL ZONE =        2204218.82              SOIL ZONE =         -24674.33
     UNSATURATED ZONE =       -1350201.97       UNSATURATED ZONE =          -4990.01
       SATURATED ZONE =        -362859.40         SATURATED ZONE =          -4114.75

 OVERALL BUDGET ERROR =          -6050.99           BUDGET ERROR =            -27.23


  PERCENT DISCREPANCY =             -0.13    PERCENT DISCREPANCY =             -0.04



1
 SUMMARY VOLUMETRIC BUDGET FOR GSFLOW 
 DATE: 01 06 1981              CUMULATIVE TIME STEP:      98
 MODFLOW STRESS PERIOD      2     CURRENT TIME STEP:      98     ITERATIONS:       8

 -----------------------------------------------------------------------------------

   CUMULATIVE VOLUMES               L**3   RATES FOR THIS TIME STEP           L**3/T
   ------------------                      ------------------------

                                     IN                                         IN
                                     --                                         --
        PRECIPITATION =        5004445.43          PRECIPITATION =                  
           STREAMFLOW =                               STREAMFLOW =                  
     GW BOUNDARY FLOW =                         GW BOUNDARY FLOW =                  


                                    OUT                                        OUT
                                    ---                                        ---
   EVAPOTRANSPIRATION =        2335215.63     EVAPOTRANSPIRATION =          21388.78
           STREAMFLOW =        1379708.08             STREAMFLOW =          21364.72
     GW BOUNDARY FLOW =          63660.90       GW BOUNDARY FLOW =            651.28

   INFLOWS - OUTFLOWS =        1225860.81     INFLOWS - OUTFLOWS =         -43404.77
             --------                                   --------

 TOTAL STORAGE CHANGE =        1232121.90         STORAGE CHANGE =         -43367.83
       --------------                             --------------
         LAND SURFACE =         837080.27           LAND SURFACE =         -30417.06
            SOIL ZONE =        2210205.07              SOIL ZONE =           2615.73
     UNSATURATED ZONE =       -1415105.86       UNSATURATED ZONE =          -9926.61
       SATURATED ZONE =        -400057.58         SATURATED ZONE =          -5639.89

 OVERALL BUDGET ERROR =          -6261.09           BUDGET ERROR =            -36.94


  PERCENT DISCREPANCY =             -0.13    PERCENT DISCREPANCY =             -0.09



1
 SUMMARY VOLUMETRIC BUDGET FOR GSFLOW 
 DATE: 01 13 1981              CUMULATIVE TIME STEP:     105
 MODFLOW STRESS PERIOD      2     CURRENT TIME STEP:     105     ITERATIONS:       7

 -----------------------------------------------------------------------------------

   CUMULATIVE VOLUMES               L**3   RATES FOR THIS TIME STEP           L**3/T
   ------------------                      ------------------------

                                     IN                                         IN
                                     --                                         --
        PRECIPITATION =        5004445.43          PRECIPITATION =                  
           STREAMFLOW =                               STREAMFLOW =                  
     GW BOUNDARY FLOW =                         GW BOUNDARY FLOW =                  


                                    OUT                                        OUT
                                    ---                                        ---
   EVAPOTRANSPIRATION =        2552725.71     EVAPOTRANSPIRATION =          44453.93
           STREAMFLOW =        1528641.34             STREAMFLOW =          20147.49
     GW BOUNDARY FLOW =          68218.18       GW BOUNDARY FLOW =            650.85

   INFLOWS - OUTFLOWS =         854860.20     INFLOWS - OUTFLOWS =         -65252.27
             --------                                   --------

 TOTAL STORAGE CHANGE =         861493.24         STORAGE CHANGE =         -65187.25
       --------------                             --------------
         LAND SURFACE =         626702.00           LAND SURFACE =         -38991.59
            SOIL ZONE =        2156501.36              SOIL ZONE =         -10593.53
     UNSATURATED ZONE =       -1478928.68       UNSATURATED ZONE =          -9118.63
       SATURATED ZONE =        -442781.44         SATURATED ZONE =          -6483.49

 OVERALL BUDGET ERROR =          -6633.04           BUDGET ERROR =            -65.02


  PERCENT DISCREPANCY =             -0.13    PERCENT DISCREPANCY =             -0.10



1
 SUMMARY VOLUMETRIC BUDGET FOR GSFLOW 
 DATE: 01 20 1981              CUMULATIVE TIME STEP:     112
 MODFLOW STRESS PERIOD      2     CURRENT TIME STEP:     112     ITERATIONS:       7

 -----------------------------------------------------------------------------------

   CUMULATIVE VOLUMES               L**3   RATES FOR THIS TIME STEP           L**3/T
   ------------------                      ------------------------

                                     IN                                         IN
                                     --                                         --
        PRECIPITATION =        5170466.84          PRECIPITATION =          41505.35
           STREAMFLOW =                               STREAMFLOW =                  
     GW BOUNDARY FLOW =                         GW BOUNDARY FLOW =                  


                                    OUT                                        OUT
                                    ---                                        ---
   EVAPOTRANSPIRATION =        2833974.69     EVAPOTRANSPIRATION =          34835.17
           STREAMFLOW =        1671213.14             STREAMFLOW =          20265.62
     GW BOUNDARY FLOW =          72773.11       GW BOUNDARY FLOW =            650.66

   INFLOWS - OUTFLOWS =         592505.90     INFLOWS - OUTFLOWS =         -14246.09
             --------                                   --------

 TOTAL STORAGE CHANGE =         599463.02         STORAGE CHANGE =         -14193.40
       --------------                             --------------
         LAND SURFACE =         436285.42           LAND SURFACE =           4326.68
            SOIL ZONE =        2159440.36              SOIL ZONE =         -10241.23
     UNSATURATED ZONE =       -1509552.25       UNSATURATED ZONE =          -1785.57
       SATURATED ZONE =        -486710.51         SATURATED ZONE =          -6493.28

 OVERALL BUDGET ERROR =          -6957.12           BUDGET ERROR =            -52.69


  PERCENT DISCREPANCY =             -0.13    PERCENT DISCREPANCY =             -0.09



1
 SUMMARY VOLUMETRIC BUDGET FOR GSFLOW 
 DATE: 01 27 1981              CUMULATIVE TIME STEP:     119
 MODFLOW STRESS PERIOD      2     CURRENT TIME STEP:     119     ITERATIONS:       9

 -----------------------------------------------------------------------------------

   CUMULATIVE VOLUMES               L**3   RATES FOR THIS TIME STEP           L**3/T
   ------------------                      ------------------------

                                     IN                                         IN
                                     --                                         --
        PRECIPITATION =        8646540.08          PRECIPITATION =        2936503.63
           STREAMFLOW =                               STREAMFLOW =                  
     GW BOUNDARY FLOW =                         GW BOUNDARY FLOW =                  


                                    OUT                                        OUT
                                    ---                                        ---
   EVAPOTRANSPIRATION =        3067740.71     EVAPOTRANSPIRATION =          13120.97
           STREAMFLOW =        1817608.66             STREAMFLOW =          18747.10
     GW BOUNDARY FLOW =          77327.59       GW BOUNDARY FLOW =            650.46

   INFLOWS - OUTFLOWS =        3683863.12     INFLOWS - OUTFLOWS =        2903985.11
             --------                                   --------

 TOTAL STORAGE CHANGE =        3691003.85         STORAGE CHANGE =        2904008.50
       --------------                             --------------
         LAND SURFACE =        3540180.85           LAND SURFACE =        2923352.24
            SOIL ZONE =        2180468.41              SOIL ZONE =          -7861.43
     UNSATURATED ZONE =       -1498407.80       UNSATURATED ZONE =          -4739.23
       SATURATED ZONE =        -531237.60         SATURATED ZONE =          -6743.09

 OVERALL BUDGET ERROR =          -7140.74           BUDGET ERROR =            -23.39


  PERCENT DISCREPANCY =             -0.08    PERCENT DISCREPANCY =             -0.00



1
 SUMMARY VOLUMETRIC BUDGET FOR GSFLOW 
 DATE: 02 03 1981              CUMULATIVE TIME STEP:     126
 MODFLOW STRESS PERIOD      2     CURRENT TIME STEP:     126     ITERATIONS:       9

 -----------------------------------------------------------------------------------

   CUMULATIVE VOLUMES               L**3   RATES FOR THIS TIME STEP           L**3/T
   ------------------                      ------------------------

                                     IN                                         IN
                                     --                                         --
        PRECIPITATION =        1.1739D+07          PRECIPITATION =                  
           STREAMFLOW =                               STREAMFLOW =                  
     GW BOUNDARY FLOW =                         GW BOUNDARY FLOW =                  


                                    OUT                                        OUT
                                    ---                                        ---
   EVAPOTRANSPIRATION =        3104253.75     EVAPOTRANSPIRATION =           6975.48
           STREAMFLOW =        1944617.73             STREAMFLOW =          18014.91
     GW BOUNDARY FLOW =          81879.76       GW BOUNDARY FLOW =            650.26

   INFLOWS - OUTFLOWS =        6607937.52     INFLOWS - OUTFLOWS =         -25640.65
             --------                                   --------

 TOTAL STORAGE CHANGE =        6615228.91         STORAGE CHANGE =         -25622.76
       --------------                             --------------
         LAND SURFACE =        6595816.50           LAND SURFACE =          -6975.48
            SOIL ZONE =        2169018.97              SOIL ZONE =            420.58
     UNSATURATED ZONE =       -1567279.31       UNSATURATED ZONE =         -11417.26
       SATURATED ZONE =        -582327.26         SATURATED ZONE =          -7650.59

 OVERALL BUDGET ERROR =          -7291.38           BUDGET ERROR =            -17.89


  PERCENT DISCREPANCY =             -0.06    PERCENT DISCREPANCY =             -0.07



1
 SUMMARY VOLUMETRIC BUDGET FOR GSFLOW 
 DATE: 02 10 1981              CUMULATIVE TIME STEP:     133
 MODFLOW STRESS PERIOD      2     CURRENT TIME STEP:     133     ITERATIONS:       7

 -----------------------------------------------------------------------------------

   CUMULATIVE VOLUMES               L**3   RATES FOR THIS TIME STEP           L**3/T
   ------------------                      ------------------------

                                     IN                                         IN
                                     --                                         --
        PRECIPITATION =        1.1838D+07          PRECIPITATION =                  
           STREAMFLOW =                               STREAMFLOW =                  
     GW BOUNDARY FLOW =                         GW BOUNDARY FLOW =                  


                                    OUT                                        OUT
                                    ---                                        ---
   EVAPOTRANSPIRATION =        3229654.82     EVAPOTRANSPIRATION =          32880.06
           STREAMFLOW =        2070940.61             STREAMFLOW =          18066.73
     GW BOUNDARY FLOW =          86431.56       GW BOUNDARY FLOW =            650.25

   INFLOWS - OUTFLOWS =        6451226.29     INFLOWS - OUTFLOWS =         -51597.03
             --------                                   --------

 TOTAL STORAGE CHANGE =        6458831.23         STORAGE CHANGE =         -51536.50
       --------------                             --------------
         LAND SURFACE =        6569979.95           LAND SURFACE =         -32880.06
            SOIL ZONE =        2173150.36              SOIL ZONE =            561.09
     UNSATURATED ZONE =       -1645787.09       UNSATURATED ZONE =         -10843.01
       SATURATED ZONE =        -638511.99         SATURATED ZONE =          -8374.52

 OVERALL BUDGET ERROR =          -7604.94           BUDGET ERROR =            -60.53


  PERCENT DISCREPANCY =             -0.06    PERCENT DISCREPANCY =             -0.12



1
 SUMMARY VOLUMETRIC BUDGET FOR GSFLOW 
 DATE: 02 17 1981              CUMULATIVE TIME STEP:     140
 MODFLOW STRESS PERIOD      2     CURRENT TIME STEP:     140     ITERATIONS:      14

 -----------------------------------------------------------------------------------

   CUMULATIVE VOLUMES               L**3   RATES FOR THIS TIME STEP           L**3/T
   ------------------                      ------------------------

                                     IN                                         IN
                                     --                                         --
        PRECIPITATION =        1.2765D+07          PRECIPITATION =          68929.28
           STREAMFLOW =                               STREAMFLOW =                  
     GW BOUNDARY FLOW =                         GW BOUNDARY FLOW =                  


                                    OUT                                        OUT
                                    ---                                        ---
   EVAPOTRANSPIRATION =        3567752.61     EVAPOTRANSPIRATION =          68607.56
           STREAMFLOW =        2616671.02             STREAMFLOW =         125638.88
     GW BOUNDARY FLOW =          91005.54       GW BOUNDARY FLOW =            656.87

   INFLOWS - OUTFLOWS =        6489539.93     INFLOWS - OUTFLOWS =        -125974.04
             --------                                   --------

 TOTAL STORAGE CHANGE =        6497412.79         STORAGE CHANGE =        -125960.57
       --------------                             --------------
         LAND SURFACE =        5590061.11           LAND SURFACE =        -278671.93
            SOIL ZONE =        2961591.57              SOIL ZONE =          72159.84
     UNSATURATED ZONE =       -1400076.07       UNSATURATED ZONE =          77969.39
       SATURATED ZONE =        -654163.82         SATURATED ZONE =           2582.13

 OVERALL BUDGET ERROR =          -7872.86           BUDGET ERROR =            -13.47


  PERCENT DISCREPANCY =             -0.06    PERCENT DISCREPANCY =             -0.01



1
 SUMMARY VOLUMETRIC BUDGET FOR GSFLOW 
 DATE: 02 24 1981              CUMULATIVE TIME STEP:     147
 MODFLOW STRESS PERIOD      2     CURRENT TIME STEP:     147     ITERATIONS:      14

 -----------------------------------------------------------------------------------

   CUMULATIVE VOLUMES               L**3   RATES FOR THIS TIME STEP           L**3/T
   ------------------                      ------------------------

                                     IN                                         IN
                                     --                                         --
        PRECIPITATION =        1.3179D+07          PRECIPITATION =         344646.37
           STREAMFLOW =                               STREAMFLOW =                  
     GW BOUNDARY FLOW =                         GW BOUNDARY FLOW =                  


                                    OUT                                        OUT
                                    ---                                        ---
   EVAPOTRANSPIRATION =        3909074.20     EVAPOTRANSPIRATION =          18832.76
           STREAMFLOW =        3176753.60             STREAMFLOW =          52180.29
     GW BOUNDARY FLOW =          95598.81       GW BOUNDARY FLOW =            655.15

   INFLOWS - OUTFLOWS =        5997118.15     INFLOWS - OUTFLOWS =         272978.16
             --------                                   --------

 TOTAL STORAGE CHANGE =        6004942.50         STORAGE CHANGE =         272974.40
       --------------                             --------------
         LAND SURFACE =        4984244.21           LAND SURFACE =         286368.61
            SOIL ZONE =        2698138.14              SOIL ZONE =         -43302.30
     UNSATURATED ZONE =       -1047573.96       UNSATURATED ZONE =          27487.24
       SATURATED ZONE =        -629865.89         SATURATED ZONE =           2420.85

 OVERALL BUDGET ERROR =          -7824.35           BUDGET ERROR =              3.76


  PERCENT DISCREPANCY =             -0.06    PERCENT DISCREPANCY =              0.00



1
 SUMMARY VOLUMETRIC BUDGET FOR GSFLOW 
 DATE: 03 03 1981              CUMULATIVE TIME STEP:     154
 MODFLOW STRESS PERIOD      2     CURRENT TIME STEP:     154     ITERATIONS:      11

 -----------------------------------------------------------------------------------

   CUMULATIVE VOLUMES               L**3   RATES FOR THIS TIME STEP           L**3/T
   ------------------                      ------------------------

                                     IN                                         IN
                                     --                                         --
        PRECIPITATION =        1.3447D+07          PRECIPITATION =                  
           STREAMFLOW =                               STREAMFLOW =                  
     GW BOUNDARY FLOW =                         GW BOUNDARY FLOW =                  


                                    OUT                                        OUT
                                    ---                                        ---
   EVAPOTRANSPIRATION =        4069756.93     EVAPOTRANSPIRATION =          45353.75
           STREAMFLOW =        3401119.11             STREAMFLOW =          27810.21
     GW BOUNDARY FLOW =         100171.78       GW BOUNDARY FLOW =            652.32

   INFLOWS - OUTFLOWS =        5875555.22     INFLOWS - OUTFLOWS =         -73816.28
             --------                                   --------

 TOTAL STORAGE CHANGE =        5883265.57         STORAGE CHANGE =         -73831.01
       --------------                             --------------
         LAND SURFACE =        5068137.31           LAND SURFACE =         -66041.98
            SOIL ZONE =        2489693.26              SOIL ZONE =           2873.41
     UNSATURATED ZONE =       -1041087.64       UNSATURATED ZONE =          -8822.81
       SATURATED ZONE =        -633477.35         SATURATED ZONE =          -1839.62

 OVERALL BUDGET ERROR =          -7710.35           BUDGET ERROR =             14.72


  PERCENT DISCREPANCY =             -0.06    PERCENT DISCREPANCY =              0.02



1
 SUMMARY VOLUMETRIC BUDGET FOR GSFLOW 
 DATE: 03 10 1981              CUMULATIVE TIME STEP:     161
 MODFLOW STRESS PERIOD      2     CURRENT TIME STEP:     161     ITERATIONS:      11

 -----------------------------------------------------------------------------------

   CUMULATIVE VOLUMES               L**3   RATES FOR THIS TIME STEP           L**3/T
   ------------------                      ------------------------

                                     IN                                         IN
                                     --                                         --
        PRECIPITATION =        1.3493D+07          PRECIPITATION =                  
           STREAMFLOW =                               STREAMFLOW =                  
     GW BOUNDARY FLOW =                         GW BOUNDARY FLOW =                  


                                    OUT                                        OUT
                                    ---                                        ---
   EVAPOTRANSPIRATION =        4415546.51     EVAPOTRANSPIRATION =          72811.00
           STREAMFLOW =        3637450.13             STREAMFLOW =          43703.40
     GW BOUNDARY FLOW =         104737.89       GW BOUNDARY FLOW =            652.94

   INFLOWS - OUTFLOWS =        5335206.62     INFLOWS - OUTFLOWS =        -117167.34
             --------                                   --------

 TOTAL STORAGE CHANGE =        5342829.52         STORAGE CHANGE =        -117180.92
       --------------                             --------------
         LAND SURFACE =        4391652.97           LAND SURFACE =        -169089.79
            SOIL ZONE =        2603638.59              SOIL ZONE =          28982.26
     UNSATURATED ZONE =       -1008017.51       UNSATURATED ZONE =          23159.41
       SATURATED ZONE =        -644444.53         SATURATED ZONE =           -232.81

 OVERALL BUDGET ERROR =          -7622.90           BUDGET ERROR =             13.58


  PERCENT DISCREPANCY =             -0.06    PERCENT DISCREPANCY =              0.01



1
 SUMMARY VOLUMETRIC BUDGET FOR GSFLOW 
 DATE: 03 17 1981              CUMULATIVE TIME STEP:     168
 MODFLOW STRESS PERIOD      2     CURRENT TIME STEP:     168     ITERATIONS:       9

 -----------------------------------------------------------------------------------

   CUMULATIVE VOLUMES               L**3   RATES FOR THIS TIME STEP           L**3/T
   ------------------                      ------------------------

                                     IN                                         IN
                                     --                                         --
        PRECIPITATION =        1.3744D+07          PRECIPITATION =                  
           STREAMFLOW =                               STREAMFLOW =                  
     GW BOUNDARY FLOW =                         GW BOUNDARY FLOW =                  


                                    OUT                                        OUT
                                    ---                                        ---
   EVAPOTRANSPIRATION =        4783956.27     EVAPOTRANSPIRATION =          40234.36
           STREAMFLOW =        3864786.81             STREAMFLOW =          24167.59
     GW BOUNDARY FLOW =         109305.21       GW BOUNDARY FLOW =            651.88

   INFLOWS - OUTFLOWS =        4986442.60     INFLOWS - OUTFLOWS =         -65053.84
             --------                                   --------

 TOTAL STORAGE CHANGE =        4993979.81         STORAGE CHANGE =         -65058.97
       --------------                             --------------
         LAND SURFACE =        4202420.68           LAND SURFACE =         -39897.13
            SOIL ZONE =        2438297.75              SOIL ZONE =          -5409.99
     UNSATURATED ZONE =        -987185.48       UNSATURATED ZONE =         -15785.35
       SATURATED ZONE =        -659553.13         SATURATED ZONE =          -3966.50

 OVERALL BUDGET ERROR =          -7537.21           BUDGET ERROR =              5.13


  PERCENT DISCREPANCY =             -0.05    PERCENT DISCREPANCY =              0.01



1
 SUMMARY VOLUMETRIC BUDGET FOR GSFLOW 
 DATE: 03 24 1981              CUMULATIVE TIME STEP:     175
 MODFLOW STRESS PERIOD      2     CURRENT TIME STEP:     175     ITERATIONS:       9

 -----------------------------------------------------------------------------------

   CUMULATIVE VOLUMES               L**3   RATES FOR THIS TIME STEP           L**3/T
   ------------------                      ------------------------

                                     IN                                         IN
                                     --                                         --
        PRECIPITATION =        1.4367D+07          PRECIPITATION =                  
           STREAMFLOW =                               STREAMFLOW =                  
     GW BOUNDARY FLOW =                         GW BOUNDARY FLOW =                  


                                    OUT                                        OUT
                                    ---                                        ---
   EVAPOTRANSPIRATION =        5139733.60     EVAPOTRANSPIRATION =          87428.11
           STREAMFLOW =        4040795.43             STREAMFLOW =          26842.25
     GW BOUNDARY FLOW =         113865.69       GW BOUNDARY FLOW =            651.46

   INFLOWS - OUTFLOWS =        5072350.80     INFLOWS - OUTFLOWS =        -114921.81
             --------                                   --------

 TOTAL STORAGE CHANGE =        5079909.57         STORAGE CHANGE =        -114924.64
       --------------                             --------------
         LAND SURFACE =        4477696.12           LAND SURFACE =         -65035.10
            SOIL ZONE =        2351079.84              SOIL ZONE =         -41078.56
     UNSATURATED ZONE =       -1057844.69       UNSATURATED ZONE =          -4273.56
       SATURATED ZONE =        -691021.70         SATURATED ZONE =          -4537.43

 OVERALL BUDGET ERROR =          -7558.77           BUDGET ERROR =              2.83


  PERCENT DISCREPANCY =             -0.05    PERCENT DISCREPANCY =              0.00



1
 SUMMARY VOLUMETRIC BUDGET FOR GSFLOW 
 DATE: 03 31 1981              CUMULATIVE TIME STEP:     182
 MODFLOW STRESS PERIOD      2     CURRENT TIME STEP:     182     ITERATIONS:      12

 -----------------------------------------------------------------------------------

   CUMULATIVE VOLUMES               L**3   RATES FOR THIS TIME STEP           L**3/T
   ------------------                      ------------------------

                                     IN                                         IN
                                     --                                         --
        PRECIPITATION =        1.5777D+07          PRECIPITATION =                  
           STREAMFLOW =                               STREAMFLOW =                  
     GW BOUNDARY FLOW =                         GW BOUNDARY FLOW =                  


                                    OUT                                        OUT
                                    ---                                        ---
   EVAPOTRANSPIRATION =        5569670.99     EVAPOTRANSPIRATION =          54090.27
           STREAMFLOW =        4550096.53             STREAMFLOW =          37150.26
     GW BOUNDARY FLOW =         118447.75       GW BOUNDARY FLOW =            653.61

   INFLOWS - OUTFLOWS =        5538532.72     INFLOWS - OUTFLOWS =         -91894.13
             --------                                   --------

 TOTAL STORAGE CHANGE =        5546033.19         STORAGE CHANGE =         -91918.03
       --------------                             --------------
         LAND SURFACE =        4494242.72           LAND SURFACE =         -55488.75
            SOIL ZONE =        2547520.66              SOIL ZONE =         -41753.80
     UNSATURATED ZONE =        -813362.77       UNSATURATED ZONE =           5958.88
       SATURATED ZONE =        -682367.41         SATURATED ZONE =           -634.35

 OVERALL BUDGET ERROR =          -7500.48           BUDGET ERROR =             23.90


  PERCENT DISCREPANCY =             -0.05    PERCENT DISCREPANCY =              0.03



1
 SUMMARY VOLUMETRIC BUDGET FOR GSFLOW 
 DATE: 04 07 1981              CUMULATIVE TIME STEP:     189
 MODFLOW STRESS PERIOD      2     CURRENT TIME STEP:     189     ITERATIONS:      10

 -----------------------------------------------------------------------------------

   CUMULATIVE VOLUMES               L**3   RATES FOR THIS TIME STEP           L**3/T
   ------------------                      ------------------------

                                     IN                                         IN
                                     --                                         --
        PRECIPITATION =        1.6121D+07          PRECIPITATION =                  
           STREAMFLOW =                               STREAMFLOW =                  
     GW BOUNDARY FLOW =                         GW BOUNDARY FLOW =                  


                                    OUT                                        OUT
                                    ---                                        ---
   EVAPOTRANSPIRATION =        6195737.23     EVAPOTRANSPIRATION =         103845.38
           STREAMFLOW =        4868709.07             STREAMFLOW =          43444.32
     GW BOUNDARY FLOW =         123023.09       GW BOUNDARY FLOW =            653.74

   INFLOWS - OUTFLOWS =        4933998.21     INFLOWS - OUTFLOWS =        -147943.44
             --------                                   --------

 TOTAL STORAGE CHANGE =        4941393.80         STORAGE CHANGE =        -147962.07
       --------------                             --------------
         LAND SURFACE =        3870170.36           LAND SURFACE =        -138668.80
            SOIL ZONE =        2478815.31              SOIL ZONE =         -20354.09
     UNSATURATED ZONE =        -729484.27       UNSATURATED ZONE =          10707.42
       SATURATED ZONE =        -678107.60         SATURATED ZONE =            353.41

 OVERALL BUDGET ERROR =          -7395.59           BUDGET ERROR =             18.62


  PERCENT DISCREPANCY =             -0.05    PERCENT DISCREPANCY =              0.01



1
 SUMMARY VOLUMETRIC BUDGET FOR GSFLOW 
 DATE: 04 14 1981              CUMULATIVE TIME STEP:     196
 MODFLOW STRESS PERIOD      2     CURRENT TIME STEP:     196     ITERATIONS:      13

 -----------------------------------------------------------------------------------

   CUMULATIVE VOLUMES               L**3   RATES FOR THIS TIME STEP           L**3/T
   ------------------                      ------------------------

                                     IN                                         IN
                                     --                                         --
        PRECIPITATION =        1.6121D+07          PRECIPITATION =                  
           STREAMFLOW =                               STREAMFLOW =                  
     GW BOUNDARY FLOW =                         GW BOUNDARY FLOW =                  


                                    OUT                                        OUT
                                    ---                                        ---
   EVAPOTRANSPIRATION =        7106426.76     EVAPOTRANSPIRATION =         191911.71
           STREAMFLOW =        5196239.19             STREAMFLOW =          55525.57
     GW BOUNDARY FLOW =         127598.52       GW BOUNDARY FLOW =            653.68

   INFLOWS - OUTFLOWS =        3691203.13     INFLOWS - OUTFLOWS =        -248090.97
             --------                                   --------

 TOTAL STORAGE CHANGE =        3698469.87         STORAGE CHANGE =        -248103.72
       --------------                             --------------
         LAND SURFACE =        2621455.97           LAND SURFACE =        -253007.68
            SOIL ZONE =        2387274.17              SOIL ZONE =         -16804.75
     UNSATURATED ZONE =        -639155.43       UNSATURATED ZONE =          19489.13
       SATURATED ZONE =        -671104.84         SATURATED ZONE =           2219.58

 OVERALL BUDGET ERROR =          -7266.73           BUDGET ERROR =             12.76


  PERCENT DISCREPANCY =             -0.05    PERCENT DISCREPANCY =              0.01



1
 SUMMARY VOLUMETRIC BUDGET FOR GSFLOW 
 DATE: 04 21 1981              CUMULATIVE TIME STEP:     203
 MODFLOW STRESS PERIOD      2     CURRENT TIME STEP:     203     ITERATIONS:      12

 -----------------------------------------------------------------------------------

   CUMULATIVE VOLUMES               L**3   RATES FOR THIS TIME STEP           L**3/T
   ------------------                      ------------------------

                                     IN                                         IN
                                     --                                         --
        PRECIPITATION =        1.6310D+07          PRECIPITATION =                  
           STREAMFLOW =                               STREAMFLOW =                  
     GW BOUNDARY FLOW =                         GW BOUNDARY FLOW =                  


                                    OUT                                        OUT
                                    ---                                        ---
   EVAPOTRANSPIRATION =        8178390.58     EVAPOTRANSPIRATION =         152247.85
           STREAMFLOW =        5535774.42             STREAMFLOW =          45835.13
     GW BOUNDARY FLOW =         132169.99       GW BOUNDARY FLOW =            652.64

   INFLOWS - OUTFLOWS =        2463907.64     INFLOWS - OUTFLOWS =        -198735.62
             --------                                   --------

 TOTAL STORAGE CHANGE =        2471041.35         STORAGE CHANGE =        -198765.96
       --------------                             --------------
         LAND SURFACE =        1440926.25           LAND SURFACE =        -121359.42
            SOIL ZONE =        2205498.05              SOIL ZONE =         -97184.16
     UNSATURATED ZONE =        -521969.73       UNSATURATED ZONE =          16840.61
       SATURATED ZONE =        -653413.22         SATURATED ZONE =           2937.01

 OVERALL BUDGET ERROR =          -7133.71           BUDGET ERROR =             30.34


  PERCENT DISCREPANCY =             -0.04    PERCENT DISCREPANCY =              0.02



1
 SUMMARY VOLUMETRIC BUDGET FOR GSFLOW 
 DATE: 04 28 1981              CUMULATIVE TIME STEP:     210
 MODFLOW STRESS PERIOD      2     CURRENT TIME STEP:     210     ITERATIONS:      14

 -----------------------------------------------------------------------------------

   CUMULATIVE VOLUMES               L**3   RATES FOR THIS TIME STEP           L**3/T
   ------------------                      ------------------------

                                     IN                                         IN
                                     --                                         --
        PRECIPITATION =        1.6515D+07          PRECIPITATION =                  
           STREAMFLOW =                               STREAMFLOW =                  
     GW BOUNDARY FLOW =                         GW BOUNDARY FLOW =                  


                                    OUT                                        OUT
                                    ---                                        ---
   EVAPOTRANSPIRATION =        9416886.92     EVAPOTRANSPIRATION =         200405.69
           STREAMFLOW =        5748130.64             STREAMFLOW =          24699.26
     GW BOUNDARY FLOW =         136729.49       GW BOUNDARY FLOW =            650.47

   INFLOWS - OUTFLOWS =        1213685.83     INFLOWS - OUTFLOWS =        -225755.42
             --------                                   --------

 TOTAL STORAGE CHANGE =        1220713.79         STORAGE CHANGE =        -225768.95
       --------------                             --------------
         LAND SURFACE =         691530.95           LAND SURFACE =         -83509.90
            SOIL ZONE =        1695320.44              SOIL ZONE =        -138438.09
     UNSATURATED ZONE =        -520664.73       UNSATURATED ZONE =          -4117.59
       SATURATED ZONE =        -645472.87         SATURATED ZONE =            296.62

 OVERALL BUDGET ERROR =          -7027.96           BUDGET ERROR =             13.53


  PERCENT DISCREPANCY =             -0.04    PERCENT DISCREPANCY =              0.01



1
 SUMMARY VOLUMETRIC BUDGET FOR GSFLOW 
 DATE: 05 05 1981              CUMULATIVE TIME STEP:     217
 MODFLOW STRESS PERIOD      2     CURRENT TIME STEP:     217     ITERATIONS:      13

 -----------------------------------------------------------------------------------

   CUMULATIVE VOLUMES               L**3   RATES FOR THIS TIME STEP           L**3/T
   ------------------                      ------------------------

                                     IN                                         IN
                                     --                                         --
        PRECIPITATION =        1.6515D+07          PRECIPITATION =                  
           STREAMFLOW =                               STREAMFLOW =                  
     GW BOUNDARY FLOW =                         GW BOUNDARY FLOW =                  


                                    OUT                                        OUT
                                    ---                                        ---
   EVAPOTRANSPIRATION =        1.0268D+07     EVAPOTRANSPIRATION =          47821.05
           STREAMFLOW =        5854164.91             STREAMFLOW =          10871.48
     GW BOUNDARY FLOW =         141275.92       GW BOUNDARY FLOW =            648.80

   INFLOWS - OUTFLOWS =         252296.88     INFLOWS - OUTFLOWS =         -59341.33
             --------                                   --------

 TOTAL STORAGE CHANGE =         259261.27         STORAGE CHANGE =         -59343.51
       --------------                             --------------
         LAND SURFACE =         347350.76           LAND SURFACE =         -17502.06
            SOIL ZONE =        1187480.63              SOIL ZONE =         -23028.57
     UNSATURATED ZONE =        -617139.75       UNSATURATED ZONE =         -15761.69
       SATURATED ZONE =        -658430.36         SATURATED ZONE =          -3051.18

 OVERALL BUDGET ERROR =          -6964.39           BUDGET ERROR =              2.17


  PERCENT DISCREPANCY =             -0.04    PERCENT DISCREPANCY =              0.00



1
 SUMMARY VOLUMETRIC BUDGET FOR GSFLOW 
 DATE: 05 12 1981              CUMULATIVE TIME STEP:     224
 MODFLOW STRESS PERIOD      2     CURRENT TIME STEP:     224     ITERATIONS:      18

 -----------------------------------------------------------------------------------

   CUMULATIVE VOLUMES               L**3   RATES FOR THIS TIME STEP           L**3/T
   ------------------                      ------------------------

                                     IN                                         IN
                                     --                                         --
        PRECIPITATION =        1.6515D+07          PRECIPITATION =                  
           STREAMFLOW =                               STREAMFLOW =                  
     GW BOUNDARY FLOW =                         GW BOUNDARY FLOW =                  


                                    OUT                                        OUT
                                    ---                                        ---
   EVAPOTRANSPIRATION =        1.0759D+07     EVAPOTRANSPIRATION =          90819.25
           STREAMFLOW =        5925309.02             STREAMFLOW =          10488.57
     GW BOUNDARY FLOW =         145814.60       GW BOUNDARY FLOW =            648.22

   INFLOWS - OUTFLOWS =        -314556.38     INFLOWS - OUTFLOWS =        -101956.04
             --------                                   --------

 TOTAL STORAGE CHANGE =        -307597.72         STORAGE CHANGE =        -101952.13
       --------------                             --------------
         LAND SURFACE =         198678.97           LAND SURFACE =         -25500.84
            SOIL ZONE =         903948.26              SOIL ZONE =         -57629.53
     UNSATURATED ZONE =        -722164.27       UNSATURATED ZONE =         -13422.86
       SATURATED ZONE =        -688060.69         SATURATED ZONE =          -5398.90

 OVERALL BUDGET ERROR =          -6958.65           BUDGET ERROR =             -3.91


  PERCENT DISCREPANCY =             -0.04    PERCENT DISCREPANCY =             -0.00



1
 SUMMARY VOLUMETRIC BUDGET FOR GSFLOW 
 DATE: 05 19 1981              CUMULATIVE TIME STEP:     231
 MODFLOW STRESS PERIOD      2     CURRENT TIME STEP:     231     ITERATIONS:      17

 -----------------------------------------------------------------------------------

   CUMULATIVE VOLUMES               L**3   RATES FOR THIS TIME STEP           L**3/T
   ------------------                      ------------------------

                                     IN                                         IN
                                     --                                         --
        PRECIPITATION =        1.7837D+07          PRECIPITATION =         169045.43
           STREAMFLOW =                               STREAMFLOW =                  
     GW BOUNDARY FLOW =                         GW BOUNDARY FLOW =                  


                                    OUT                                        OUT
                                    ---                                        ---
   EVAPOTRANSPIRATION =        1.1102D+07     EVAPOTRANSPIRATION =          32129.65
           STREAMFLOW =        6056451.55             STREAMFLOW =          27356.14
     GW BOUNDARY FLOW =         150354.13       GW BOUNDARY FLOW =            649.57

   INFLOWS - OUTFLOWS =         528007.89     INFLOWS - OUTFLOWS =         108910.07
             --------                                   --------

 TOTAL STORAGE CHANGE =         534975.98         STORAGE CHANGE =         108915.44
       --------------                             --------------
         LAND SURFACE =         167097.84           LAND SURFACE =           4534.24
            SOIL ZONE =        1884673.14              SOIL ZONE =         110155.19
     UNSATURATED ZONE =        -789788.68       UNSATURATED ZONE =           -534.93
       SATURATED ZONE =        -727006.33         SATURATED ZONE =          -5239.06

 OVERALL BUDGET ERROR =          -6968.09           BUDGET ERROR =             -5.38


  PERCENT DISCREPANCY =             -0.04    PERCENT DISCREPANCY =             -0.00



1
 SUMMARY VOLUMETRIC BUDGET FOR GSFLOW 
 DATE: 05 26 1981              CUMULATIVE TIME STEP:     238
 MODFLOW STRESS PERIOD      2     CURRENT TIME STEP:     238     ITERATIONS:      14

 -----------------------------------------------------------------------------------

   CUMULATIVE VOLUMES               L**3   RATES FOR THIS TIME STEP           L**3/T
   ------------------                      ------------------------

                                     IN                                         IN
                                     --                                         --
        PRECIPITATION =        1.8252D+07          PRECIPITATION =         284303.67
           STREAMFLOW =                               STREAMFLOW =                  
     GW BOUNDARY FLOW =                         GW BOUNDARY FLOW =                  


                                    OUT                                        OUT
                                    ---                                        ---
   EVAPOTRANSPIRATION =        1.1924D+07     EVAPOTRANSPIRATION =         132233.27
           STREAMFLOW =        6170012.53             STREAMFLOW =          19495.87
     GW BOUNDARY FLOW =         154895.60       GW BOUNDARY FLOW =            648.54

   INFLOWS - OUTFLOWS =           3269.90     INFLOWS - OUTFLOWS =         131925.99
             --------                                   --------

 TOTAL STORAGE CHANGE =          10247.83         STORAGE CHANGE =         131934.25
       --------------                             --------------
         LAND SURFACE =          96880.50           LAND SURFACE =          -7049.94
            SOIL ZONE =        1534295.20              SOIL ZONE =         156321.88
     UNSATURATED ZONE =        -846855.25       UNSATURATED ZONE =         -10697.25
       SATURATED ZONE =        -774072.62         SATURATED ZONE =          -6640.44

 OVERALL BUDGET ERROR =          -6977.92           BUDGET ERROR =             -8.26


  PERCENT DISCREPANCY =             -0.04    PERCENT DISCREPANCY =             -0.00



1
 SUMMARY VOLUMETRIC BUDGET FOR GSFLOW 
 DATE: 06 02 1981              CUMULATIVE TIME STEP:     245
 MODFLOW STRESS PERIOD      2     CURRENT TIME STEP:     245     ITERATIONS:      14

 -----------------------------------------------------------------------------------

   CUMULATIVE VOLUMES               L**3   RATES FOR THIS TIME STEP           L**3/T
   ------------------                      ------------------------

                                     IN                                         IN
                                     --                                         --
        PRECIPITATION =        1.8318D+07          PRECIPITATION =          50869.96
           STREAMFLOW =                               STREAMFLOW =                  
     GW BOUNDARY FLOW =                         GW BOUNDARY FLOW =                  


                                    OUT                                        OUT
                                    ---                                        ---
   EVAPOTRANSPIRATION =        1.2720D+07     EVAPOTRANSPIRATION =          69334.98
           STREAMFLOW =        6240832.65             STREAMFLOW =           7792.41
     GW BOUNDARY FLOW =         159430.94       GW BOUNDARY FLOW =            647.45

   INFLOWS - OUTFLOWS =        -802478.80     INFLOWS - OUTFLOWS =         -26904.88
             --------                                   --------

 TOTAL STORAGE CHANGE =        -795478.40         STORAGE CHANGE =         -26895.26
       --------------                             --------------
         LAND SURFACE =          61812.20           LAND SURFACE =          30830.75
            SOIL ZONE =         908197.63              SOIL ZONE =         -35679.27
     UNSATURATED ZONE =        -934814.23       UNSATURATED ZONE =         -13671.61
       SATURATED ZONE =        -830674.00         SATURATED ZONE =          -8375.12

 OVERALL BUDGET ERROR =          -7000.40           BUDGET ERROR =             -9.62


  PERCENT DISCREPANCY =             -0.04    PERCENT DISCREPANCY =             -0.01



1
 SUMMARY VOLUMETRIC BUDGET FOR GSFLOW 
 DATE: 06 09 1981              CUMULATIVE TIME STEP:     252
 MODFLOW STRESS PERIOD      2     CURRENT TIME STEP:     252     ITERATIONS:      13

 -----------------------------------------------------------------------------------

   CUMULATIVE VOLUMES               L**3   RATES FOR THIS TIME STEP           L**3/T
   ------------------                      ------------------------

                                     IN                                         IN
                                     --                                         --
        PRECIPITATION =        1.8318D+07          PRECIPITATION =                  
           STREAMFLOW =                               STREAMFLOW =                  
     GW BOUNDARY FLOW =                         GW BOUNDARY FLOW =                  


                                    OUT                                        OUT
                                    ---                                        ---
   EVAPOTRANSPIRATION =        1.3216D+07     EVAPOTRANSPIRATION =          51758.84
           STREAMFLOW =        6288712.53             STREAMFLOW =           6433.64
     GW BOUNDARY FLOW =         163960.88       GW BOUNDARY FLOW =            646.96

   INFLOWS - OUTFLOWS =       -1350475.72     INFLOWS - OUTFLOWS =         -58839.44
             --------                                   --------

 TOTAL STORAGE CHANGE =       -1343448.42         STORAGE CHANGE =         -58831.56
       --------------                             --------------
         LAND SURFACE =           8252.08           LAND SURFACE =          -1595.17
            SOIL ZONE =         569181.39              SOIL ZONE =         -35005.35
     UNSATURATED ZONE =       -1028935.97       UNSATURATED ZONE =         -13320.23
       SATURATED ZONE =        -891945.91         SATURATED ZONE =          -8910.80

 OVERALL BUDGET ERROR =          -7027.30           BUDGET ERROR =             -7.89


  PERCENT DISCREPANCY =             -0.04    PERCENT DISCREPANCY =             -0.01



1
 SUMMARY VOLUMETRIC BUDGET FOR GSFLOW 
 DATE: 06 16 1981              CUMULATIVE TIME STEP:     259
 MODFLOW STRESS PERIOD      2     CURRENT TIME STEP:     259     ITERATIONS:      17

 -----------------------------------------------------------------------------------

   CUMULATIVE VOLUMES               L**3   RATES FOR THIS TIME STEP           L**3/T
   ------------------                      ------------------------

                                     IN                                         IN
                                     --                                         --
        PRECIPITATION =        1.8318D+07          PRECIPITATION =                  
           STREAMFLOW =                               STREAMFLOW =                  
     GW BOUNDARY FLOW =                         GW BOUNDARY FLOW =                  


                                    OUT                                        OUT
                                    ---                                        ---
   EVAPOTRANSPIRATION =        1.3408D+07     EVAPOTRANSPIRATION =          45426.28
           STREAMFLOW =        6332447.38             STREAMFLOW =           6177.35
     GW BOUNDARY FLOW =         168488.70       GW BOUNDARY FLOW =            646.75

   INFLOWS - OUTFLOWS =       -1591080.55     INFLOWS - OUTFLOWS =         -52250.38
             --------                                   --------

 TOTAL STORAGE CHANGE =       -1584022.25         STORAGE CHANGE =         -52241.44
       --------------                             --------------
         LAND SURFACE =           3425.60           LAND SURFACE =           -943.52
            SOIL ZONE =         487787.62              SOIL ZONE =         -29390.10
     UNSATURATED ZONE =       -1120035.24       UNSATURATED ZONE =         -12777.60
       SATURATED ZONE =        -955200.23         SATURATED ZONE =          -9130.21

 OVERALL BUDGET ERROR =          -7058.30           BUDGET ERROR =             -8.94


  PERCENT DISCREPANCY =             -0.04    PERCENT DISCREPANCY =             -0.02



1
 SUMMARY VOLUMETRIC BUDGET FOR GSFLOW 
 DATE: 06 23 1981              CUMULATIVE TIME STEP:     266
 MODFLOW STRESS PERIOD      2     CURRENT TIME STEP:     266     ITERATIONS:      14

 -----------------------------------------------------------------------------------

   CUMULATIVE VOLUMES               L**3   RATES FOR THIS TIME STEP           L**3/T
   ------------------                      ------------------------

                                     IN                                         IN
                                     --                                         --
        PRECIPITATION =        1.8318D+07          PRECIPITATION =                  
           STREAMFLOW =                               STREAMFLOW =                  
     GW BOUNDARY FLOW =                         GW BOUNDARY FLOW =                  


                                    OUT                                        OUT
                                    ---                                        ---
   EVAPOTRANSPIRATION =        1.3708D+07     EVAPOTRANSPIRATION =          34948.14
           STREAMFLOW =        6374637.02             STREAMFLOW =           5948.44
     GW BOUNDARY FLOW =         173015.22       GW BOUNDARY FLOW =            646.57

   INFLOWS - OUTFLOWS =       -1937086.00     INFLOWS - OUTFLOWS =         -41543.15
             --------                                   --------

 TOTAL STORAGE CHANGE =       -1930013.44         STORAGE CHANGE =         -41539.45
       --------------                             --------------
         LAND SURFACE =                             LAND SURFACE =                  
            SOIL ZONE =         297456.63              SOIL ZONE =         -19913.25
     UNSATURATED ZONE =       -1205971.37       UNSATURATED ZONE =         -11812.37
       SATURATED ZONE =       -1021498.71         SATURATED ZONE =          -9813.83

 OVERALL BUDGET ERROR =          -7072.56           BUDGET ERROR =             -3.70


  PERCENT DISCREPANCY =             -0.03    PERCENT DISCREPANCY =             -0.01



1
 SUMMARY VOLUMETRIC BUDGET FOR GSFLOW 
 DATE: 06 30 1981              CUMULATIVE TIME STEP:     273
 MODFLOW STRESS PERIOD      2     CURRENT TIME STEP:     273     ITERATIONS:       9

 -----------------------------------------------------------------------------------

   CUMULATIVE VOLUMES               L**3   RATES FOR THIS TIME STEP           L**3/T
   ------------------                      ------------------------

                                     IN                                         IN
[...]
                                    ---                                        ---
   EVAPOTRANSPIRATION =        2.8350D+08     EVAPOTRANSPIRATION =          44933.05
           STREAMFLOW =        1.8519D+08             STREAMFLOW =           7025.56
     GW BOUNDARY FLOW =        3736382.91       GW BOUNDARY FLOW =            650.84

   INFLOWS - OUTFLOWS =       -7362282.45     INFLOWS - OUTFLOWS =         -52609.45
             --------                                   --------

 TOTAL STORAGE CHANGE =       -7261125.25         STORAGE CHANGE =         -52619.69
       --------------                             --------------
         LAND SURFACE =          84495.33           LAND SURFACE =          -4962.88
            SOIL ZONE =         278699.27              SOIL ZONE =         -25966.91
     UNSATURATED ZONE =        5105826.03       UNSATURATED ZONE =         -27678.97
       SATURATED ZONE =       -1.2730D+07         SATURATED ZONE =           5989.06

 OVERALL BUDGET ERROR =        -101157.20           BUDGET ERROR =             10.25


  PERCENT DISCREPANCY =             -0.02    PERCENT DISCREPANCY =              0.02



1
 SUMMARY VOLUMETRIC BUDGET FOR GSFLOW 
 DATE: 07 30 1996              CUMULATIVE TIME STEP:    5782
 MODFLOW STRESS PERIOD      2     CURRENT TIME STEP:    5782     ITERATIONS:      14

 -----------------------------------------------------------------------------------

   CUMULATIVE VOLUMES               L**3   RATES FOR THIS TIME STEP           L**3/T
   ------------------                      ------------------------

                                     IN                                         IN
                                     --                                         --
        PRECIPITATION =        4.6511D+08          PRECIPITATION =                  
           STREAMFLOW =                               STREAMFLOW =                  
     GW BOUNDARY FLOW =                         GW BOUNDARY FLOW =                  


                                    OUT                                        OUT
                                    ---                                        ---
   EVAPOTRANSPIRATION =        2.8377D+08     EVAPOTRANSPIRATION =          30207.09
           STREAMFLOW =        1.8523D+08             STREAMFLOW =           6869.55
     GW BOUNDARY FLOW =        3740937.22       GW BOUNDARY FLOW =            650.46

   INFLOWS - OUTFLOWS =       -7636317.83     INFLOWS - OUTFLOWS =         -37727.10
             --------                                   --------

 TOTAL STORAGE CHANGE =       -7535305.99         STORAGE CHANGE =         -37750.75
       --------------                             --------------
         LAND SURFACE =          55405.90           LAND SURFACE =          -3487.93
            SOIL ZONE =         184092.42              SOIL ZONE =         -12900.61
     UNSATURATED ZONE =        4914385.87       UNSATURATED ZONE =         -26908.31
       SATURATED ZONE =       -1.2689D+07         SATURATED ZONE =           5546.10

 OVERALL BUDGET ERROR =        -101011.84           BUDGET ERROR =             23.66


  PERCENT DISCREPANCY =             -0.02    PERCENT DISCREPANCY =              0.06



1
 SUMMARY VOLUMETRIC BUDGET FOR GSFLOW 
 DATE: 08 06 1996              CUMULATIVE TIME STEP:    5789
 MODFLOW STRESS PERIOD      2     CURRENT TIME STEP:    5789     ITERATIONS:      15

 -----------------------------------------------------------------------------------

   CUMULATIVE VOLUMES               L**3   RATES FOR THIS TIME STEP           L**3/T
   ------------------                      ------------------------

                                     IN                                         IN
                                     --                                         --
        PRECIPITATION =        4.6511D+08          PRECIPITATION =                  
           STREAMFLOW =                               STREAMFLOW =                  
     GW BOUNDARY FLOW =                         GW BOUNDARY FLOW =                  


                                    OUT                                        OUT
                                    ---                                        ---
   EVAPOTRANSPIRATION =        2.8392D+08     EVAPOTRANSPIRATION =          19826.54
           STREAMFLOW =        1.8528D+08             STREAMFLOW =           6660.99
     GW BOUNDARY FLOW =        3745490.23       GW BOUNDARY FLOW =            650.38

   INFLOWS - OUTFLOWS =       -7833141.56     INFLOWS - OUTFLOWS =         -27137.91
             --------                                   --------

 TOTAL STORAGE CHANGE =       -7732242.91         STORAGE CHANGE =         -27151.86
       --------------                             --------------
         LAND SURFACE =          37062.04           LAND SURFACE =          -2253.66
            SOIL ZONE =         153735.27              SOIL ZONE =          -3855.39
     UNSATURATED ZONE =        4729287.33       UNSATURATED ZONE =         -25989.84
       SATURATED ZONE =       -1.2652D+07         SATURATED ZONE =           4947.03

 OVERALL BUDGET ERROR =        -100898.65           BUDGET ERROR =             13.96


  PERCENT DISCREPANCY =             -0.02    PERCENT DISCREPANCY =              0.05



1
 SUMMARY VOLUMETRIC BUDGET FOR GSFLOW 
 DATE: 08 13 1996              CUMULATIVE TIME STEP:    5796
 MODFLOW STRESS PERIOD      2     CURRENT TIME STEP:    5796     ITERATIONS:      14

 -----------------------------------------------------------------------------------

   CUMULATIVE VOLUMES               L**3   RATES FOR THIS TIME STEP           L**3/T
   ------------------                      ------------------------

                                     IN                                         IN
                                     --                                         --
        PRECIPITATION =        4.6531D+08          PRECIPITATION =          54454.08
           STREAMFLOW =                               STREAMFLOW =                  
     GW BOUNDARY FLOW =                         GW BOUNDARY FLOW =                  


                                    OUT                                        OUT
                                    ---                                        ---
   EVAPOTRANSPIRATION =        2.8409D+08     EVAPOTRANSPIRATION =          29381.20
           STREAMFLOW =        1.8533D+08             STREAMFLOW =           7873.75
     GW BOUNDARY FLOW =        3750042.43       GW BOUNDARY FLOW =            650.33

   INFLOWS - OUTFLOWS =       -7860395.65     INFLOWS - OUTFLOWS =          16548.80
             --------                                   --------

 TOTAL STORAGE CHANGE =       -7759586.47         STORAGE CHANGE =          16537.13
       --------------                             --------------
         LAND SURFACE =          53162.52           LAND SURFACE =          -2312.39
            SOIL ZONE =         256096.41              SOIL ZONE =          39491.52
     UNSATURATED ZONE =        4553876.29       UNSATURATED ZONE =         -24439.33
       SATURATED ZONE =       -1.2623D+07         SATURATED ZONE =           3797.33

 OVERALL BUDGET ERROR =        -100809.18           BUDGET ERROR =             11.67


  PERCENT DISCREPANCY =             -0.02    PERCENT DISCREPANCY =              0.02



1
 SUMMARY VOLUMETRIC BUDGET FOR GSFLOW 
 DATE: 08 20 1996              CUMULATIVE TIME STEP:    5803
 MODFLOW STRESS PERIOD      2     CURRENT TIME STEP:    5803     ITERATIONS:      14

 -----------------------------------------------------------------------------------

   CUMULATIVE VOLUMES               L**3   RATES FOR THIS TIME STEP           L**3/T
   ------------------                      ------------------------

                                     IN                                         IN
                                     --                                         --
        PRECIPITATION =        4.6531D+08          PRECIPITATION =                  
           STREAMFLOW =                               STREAMFLOW =                  
     GW BOUNDARY FLOW =                         GW BOUNDARY FLOW =                  


                                    OUT                                        OUT
                                    ---                                        ---
   EVAPOTRANSPIRATION =        2.8429D+08     EVAPOTRANSPIRATION =          19354.55
           STREAMFLOW =        1.8538D+08             STREAMFLOW =           6462.86
     GW BOUNDARY FLOW =        3754593.11       GW BOUNDARY FLOW =            649.92

   INFLOWS - OUTFLOWS =       -8111134.48     INFLOWS - OUTFLOWS =         -26467.33
             --------                                   --------

 TOTAL STORAGE CHANGE =       -8010410.75         STORAGE CHANGE =         -26475.76
       --------------                             --------------
         LAND SURFACE =           6921.38           LAND SURFACE =          -1297.31
            SOIL ZONE =         195809.67              SOIL ZONE =          -4677.65
     UNSATURATED ZONE =        4386834.81       UNSATURATED ZONE =         -23350.46
       SATURATED ZONE =       -1.2600D+07         SATURATED ZONE =           2849.66

 OVERALL BUDGET ERROR =        -100723.73           BUDGET ERROR =              8.43


  PERCENT DISCREPANCY =             -0.02    PERCENT DISCREPANCY =              0.03



1
 SUMMARY VOLUMETRIC BUDGET FOR GSFLOW 
 DATE: 08 27 1996              CUMULATIVE TIME STEP:    5810
 MODFLOW STRESS PERIOD      2     CURRENT TIME STEP:    5810     ITERATIONS:      12

 -----------------------------------------------------------------------------------

   CUMULATIVE VOLUMES               L**3   RATES FOR THIS TIME STEP           L**3/T
   ------------------                      ------------------------

                                     IN                                         IN
                                     --                                         --
        PRECIPITATION =        4.6531D+08          PRECIPITATION =                  
           STREAMFLOW =                               STREAMFLOW =                  
     GW BOUNDARY FLOW =                         GW BOUNDARY FLOW =                  


                                    OUT                                        OUT
                                    ---                                        ---
   EVAPOTRANSPIRATION =        2.8443D+08     EVAPOTRANSPIRATION =          15485.60
           STREAMFLOW =        1.8542D+08             STREAMFLOW =           6300.80
     GW BOUNDARY FLOW =        3759141.06       GW BOUNDARY FLOW =            649.54

   INFLOWS - OUTFLOWS =       -8300433.58     INFLOWS - OUTFLOWS =         -22435.95
             --------                                   --------

 TOTAL STORAGE CHANGE =       -8199853.99         STORAGE CHANGE =         -22461.22
       --------------                             --------------
         LAND SURFACE =           1243.96           LAND SURFACE =           -271.65
            SOIL ZONE =         154623.93              SOIL ZONE =          -1921.83
     UNSATURATED ZONE =        4227807.87       UNSATURATED ZONE =         -22192.95
       SATURATED ZONE =       -1.2584D+07         SATURATED ZONE =           1925.21

 OVERALL BUDGET ERROR =        -100579.59           BUDGET ERROR =             25.28


  PERCENT DISCREPANCY =             -0.02    PERCENT DISCREPANCY =              0.11



1
 SUMMARY VOLUMETRIC BUDGET FOR GSFLOW 
 DATE: 09 03 1996              CUMULATIVE TIME STEP:    5817
 MODFLOW STRESS PERIOD      2     CURRENT TIME STEP:    5817     ITERATIONS:      12

 -----------------------------------------------------------------------------------

   CUMULATIVE VOLUMES               L**3   RATES FOR THIS TIME STEP           L**3/T
   ------------------                      ------------------------

                                     IN                                         IN
                                     --                                         --
        PRECIPITATION =        4.6531D+08          PRECIPITATION =                  
           STREAMFLOW =                               STREAMFLOW =                  
     GW BOUNDARY FLOW =                         GW BOUNDARY FLOW =                  


                                    OUT                                        OUT
                                    ---                                        ---
   EVAPOTRANSPIRATION =        2.8454D+08     EVAPOTRANSPIRATION =          12838.77
           STREAMFLOW =        1.8547D+08             STREAMFLOW =           6196.15
     GW BOUNDARY FLOW =        3763686.24       GW BOUNDARY FLOW =            649.14

   INFLOWS - OUTFLOWS =       -8455919.32     INFLOWS - OUTFLOWS =         -19684.05
             --------                                   --------

 TOTAL STORAGE CHANGE =       -8355509.38         STORAGE CHANGE =         -19715.22
       --------------                             --------------
         LAND SURFACE =            583.76           LAND SURFACE =            -75.05
            SOIL ZONE =         140564.27              SOIL ZONE =            402.12
     UNSATURATED ZONE =        4072891.92       UNSATURATED ZONE =         -22049.86
       SATURATED ZONE =       -1.2570D+07         SATURATED ZONE =           2007.58

 OVERALL BUDGET ERROR =        -100409.94           BUDGET ERROR =             31.16


  PERCENT DISCREPANCY =             -0.02    PERCENT DISCREPANCY =              0.16



1
 SUMMARY VOLUMETRIC BUDGET FOR GSFLOW 
 DATE: 09 10 1996              CUMULATIVE TIME STEP:    5824
 MODFLOW STRESS PERIOD      2     CURRENT TIME STEP:    5824     ITERATIONS:      12

 -----------------------------------------------------------------------------------

   CUMULATIVE VOLUMES               L**3   RATES FOR THIS TIME STEP           L**3/T
   ------------------                      ------------------------

                                     IN                                         IN
                                     --                                         --
        PRECIPITATION =        4.6531D+08          PRECIPITATION =                  
           STREAMFLOW =                               STREAMFLOW =                  
     GW BOUNDARY FLOW =                         GW BOUNDARY FLOW =                  


                                    OUT                                        OUT
                                    ---                                        ---
   EVAPOTRANSPIRATION =        2.8463D+08     EVAPOTRANSPIRATION =          13260.71
           STREAMFLOW =        1.8551D+08             STREAMFLOW =           6104.03
     GW BOUNDARY FLOW =        3768228.68       GW BOUNDARY FLOW =            648.75

   INFLOWS - OUTFLOWS =       -8588730.71     INFLOWS - OUTFLOWS =         -20013.48
             --------                                   --------

 TOTAL STORAGE CHANGE =       -8488513.88         STORAGE CHANGE =         -20041.76
       --------------                             --------------
         LAND SURFACE =            141.35           LAND SURFACE =            -69.28
            SOIL ZONE =         147400.79              SOIL ZONE =           -150.83
     UNSATURATED ZONE =        3923679.10       UNSATURATED ZONE =         -20840.67
       SATURATED ZONE =       -1.2560D+07         SATURATED ZONE =           1019.02

 OVERALL BUDGET ERROR =        -100216.82           BUDGET ERROR =             28.28


  PERCENT DISCREPANCY =             -0.02    PERCENT DISCREPANCY =              0.14



1
 SUMMARY VOLUMETRIC BUDGET FOR GSFLOW 
 DATE: 09 17 1996              CUMULATIVE TIME STEP:    5831
 MODFLOW STRESS PERIOD      2     CURRENT TIME STEP:    5831     ITERATIONS:      12

 -----------------------------------------------------------------------------------

   CUMULATIVE VOLUMES               L**3   RATES FOR THIS TIME STEP           L**3/T
   ------------------                      ------------------------

                                     IN                                         IN
                                     --                                         --
        PRECIPITATION =        4.6637D+08          PRECIPITATION =                  
           STREAMFLOW =                               STREAMFLOW =                  
     GW BOUNDARY FLOW =                         GW BOUNDARY FLOW =                  


                                    OUT                                        OUT
                                    ---                                        ---
   EVAPOTRANSPIRATION =        2.8480D+08     EVAPOTRANSPIRATION =          58054.02
           STREAMFLOW =        1.8557D+08             STREAMFLOW =          10261.67
     GW BOUNDARY FLOW =        3772770.29       GW BOUNDARY FLOW =            649.14

   INFLOWS - OUTFLOWS =       -7783407.92     INFLOWS - OUTFLOWS =         -68964.83
             --------                                   --------

 TOTAL STORAGE CHANGE =       -7683445.13         STORAGE CHANGE =         -68988.10
       --------------                             --------------
         LAND SURFACE =           3348.24           LAND SURFACE =         -35098.95
            SOIL ZONE =        1085131.89              SOIL ZONE =         -14281.72
     UNSATURATED ZONE =        3782096.68       UNSATURATED ZONE =         -19812.28
       SATURATED ZONE =       -1.2554D+07         SATURATED ZONE =            204.84

 OVERALL BUDGET ERROR =         -99962.79           BUDGET ERROR =             23.26


  PERCENT DISCREPANCY =             -0.02    PERCENT DISCREPANCY =              0.03



1
 SUMMARY VOLUMETRIC BUDGET FOR GSFLOW 
 DATE: 09 24 1996              CUMULATIVE TIME STEP:    5838
 MODFLOW STRESS PERIOD      2     CURRENT TIME STEP:    5838     ITERATIONS:      16

 -----------------------------------------------------------------------------------

   CUMULATIVE VOLUMES               L**3   RATES FOR THIS TIME STEP           L**3/T
   ------------------                      ------------------------

                                     IN                                         IN
                                     --                                         --
        PRECIPITATION =        4.6637D+08          PRECIPITATION =                  
           STREAMFLOW =                               STREAMFLOW =                  
     GW BOUNDARY FLOW =                         GW BOUNDARY FLOW =                  


                                    OUT                                        OUT
                                    ---                                        ---
   EVAPOTRANSPIRATION =        2.8526D+08     EVAPOTRANSPIRATION =          54069.64
           STREAMFLOW =        1.8563D+08             STREAMFLOW =           6704.65
     GW BOUNDARY FLOW =        3777310.29       GW BOUNDARY FLOW =            648.23

   INFLOWS - OUTFLOWS =       -8304329.92     INFLOWS - OUTFLOWS =         -61422.53
             --------                                   --------

 TOTAL STORAGE CHANGE =       -8204509.85         STORAGE CHANGE =         -61420.30
       --------------                             --------------
         LAND SURFACE =                             LAND SURFACE =                  
            SOIL ZONE =         703934.08              SOIL ZONE =         -42023.16
     UNSATURATED ZONE =        3645732.17       UNSATURATED ZONE =         -19195.55
       SATURATED ZONE =       -1.2554D+07         SATURATED ZONE =           -201.59

 OVERALL BUDGET ERROR =         -99820.08           BUDGET ERROR =             -2.23


  PERCENT DISCREPANCY =             -0.02    PERCENT DISCREPANCY =             -0.00



