1
 SUMMARY VOLUMETRIC BUDGET FOR GSFLOW 
 DATE: 10 07 1980              CUMULATIVE TIME STEP:       7
 MODFLOW STRESS PERIOD      2     CURRENT TIME STEP:       7     ITERATIONS:       6

 -----------------------------------------------------------------------------------

   CUMULATIVE VOLUMES               L**3   RATES FOR THIS TIME STEP           L**3/T
   ------------------                      ------------------------

                                     IN                                         IN
                                     --                                         --
        PRECIPITATION =                            PRECIPITATION =                  
           STREAMFLOW =                               STREAMFLOW =                  
     GW BOUNDARY FLOW =                         GW BOUNDARY FLOW =                  


                                    OUT                                        OUT
                                    ---                                        ---
   EVAPOTRANSPIRATION =          63606.14     EVAPOTRANSPIRATION =           9289.55
           STREAMFLOW =          42957.63             STREAMFLOW =           6065.77
     GW BOUNDARY FLOW =           4541.44       GW BOUNDARY FLOW =            648.70

   INFLOWS - OUTFLOWS =        -111105.20     INFLOWS - OUTFLOWS =         -16004.02
             --------                                   --------

 TOTAL STORAGE CHANGE =        -110649.42         STORAGE CHANGE =         -15935.71
       --------------                             --------------
         LAND SURFACE =                             LAND SURFACE =                  
            SOIL ZONE =          46910.91              SOIL ZONE =           6406.87
     UNSATURATED ZONE =        -144777.37       UNSATURATED ZONE =         -20360.11
       SATURATED ZONE =         -12782.96         SATURATED ZONE =          -1982.46

 OVERALL BUDGET ERROR =           -455.78           BUDGET ERROR =            -68.32


  PERCENT DISCREPANCY =             -0.41    PERCENT DISCREPANCY =             -0.43



1
 SUMMARY VOLUMETRIC BUDGET FOR GSFLOW 
 DATE: 10 14 1980              CUMULATIVE TIME STEP:      14
 MODFLOW STRESS PERIOD      2     CURRENT TIME STEP:      14     ITERATIONS:       6

 -----------------------------------------------------------------------------------

   CUMULATIVE VOLUMES               L**3   RATES FOR THIS TIME STEP           L**3/T
   ------------------                      ------------------------

                                     IN                                         IN
                                     --                                         --
        PRECIPITATION =         650779.83          PRECIPITATION =         164754.40
           STREAMFLOW =                               STREAMFLOW =                  
     GW BOUNDARY FLOW =                         GW BOUNDARY FLOW =                  


                                    OUT                                        OUT
                                    ---                                        ---
   EVAPOTRANSPIRATION =         159028.32     EVAPOTRANSPIRATION =          10554.56
           STREAMFLOW =          94507.15             STREAMFLOW =           7738.49
     GW BOUNDARY FLOW =           9082.96       GW BOUNDARY FLOW =            648.94

   INFLOWS - OUTFLOWS =         388161.40     INFLOWS - OUTFLOWS =         145812.41
             --------                                   --------

 TOTAL STORAGE CHANGE =         389132.36         STORAGE CHANGE =         145886.62
       --------------                             --------------
         LAND SURFACE =         183750.31           LAND SURFACE =         130549.56
            SOIL ZONE =         517315.49              SOIL ZONE =          37353.54
     UNSATURATED ZONE =        -284494.82       UNSATURATED ZONE =         -19624.14
       SATURATED ZONE =         -27438.61         SATURATED ZONE =          -2392.35

 OVERALL BUDGET ERROR =           -970.96           BUDGET ERROR =            -74.21


  PERCENT DISCREPANCY =             -0.15    PERCENT DISCREPANCY =             -0.05



1
 SUMMARY VOLUMETRIC BUDGET FOR GSFLOW 
 DATE: 10 21 1980              CUMULATIVE TIME STEP:      21
 MODFLOW STRESS PERIOD      2     CURRENT TIME STEP:      21     ITERATIONS:       6

 -----------------------------------------------------------------------------------

   CUMULATIVE VOLUMES               L**3   RATES FOR THIS TIME STEP           L**3/T
   ------------------                      ------------------------

                                     IN                                         IN
                                     --                                         --
        PRECIPITATION =         733157.03          PRECIPITATION =                  
           STREAMFLOW =                               STREAMFLOW =                  
     GW BOUNDARY FLOW =                         GW BOUNDARY FLOW =                  


                                    OUT                                        OUT
                                    ---                                        ---
   EVAPOTRANSPIRATION =         374215.40     EVAPOTRANSPIRATION =          30714.81
           STREAMFLOW =         146203.43             STREAMFLOW =           6989.14
     GW BOUNDARY FLOW =          13624.75       GW BOUNDARY FLOW =            648.75

   INFLOWS - OUTFLOWS =         199113.45     INFLOWS - OUTFLOWS =         -38352.69
             --------                                   --------

 TOTAL STORAGE CHANGE =         200592.26         STORAGE CHANGE =         -38273.80
       --------------                             --------------
         LAND SURFACE =                             LAND SURFACE =                  
            SOIL ZONE =         665602.74              SOIL ZONE =         -16428.86
     UNSATURATED ZONE =        -418658.82       UNSATURATED ZONE =         -18825.79
       SATURATED ZONE =         -46351.66         SATURATED ZONE =          -3019.14

 OVERALL BUDGET ERROR =          -1478.82           BUDGET ERROR =            -78.89


  PERCENT DISCREPANCY =             -0.20    PERCENT DISCREPANCY =             -0.21



1
 SUMMARY VOLUMETRIC BUDGET FOR GSFLOW 
 DATE: 10 28 1980              CUMULATIVE TIME STEP:      28
 MODFLOW STRESS PERIOD      2     CURRENT TIME STEP:      28     ITERATIONS:       6

 -----------------------------------------------------------------------------------

   CUMULATIVE VOLUMES               L**3   RATES FOR THIS TIME STEP           L**3/T
   ------------------                      ------------------------

                                     IN                                         IN
                                     --                                         --
        PRECIPITATION =        1070903.53          PRECIPITATION =                  
           STREAMFLOW =                               STREAMFLOW =                  
     GW BOUNDARY FLOW =                         GW BOUNDARY FLOW =                  


                                    OUT                                        OUT
                                    ---                                        ---
   EVAPOTRANSPIRATION =         546674.58     EVAPOTRANSPIRATION =          24800.27
           STREAMFLOW =         201242.76             STREAMFLOW =           8022.49
     GW BOUNDARY FLOW =          18166.08       GW BOUNDARY FLOW =            648.81

   INFLOWS - OUTFLOWS =         304820.10     INFLOWS - OUTFLOWS =         -33471.57
             --------                                   --------

 TOTAL STORAGE CHANGE =         306866.46         STORAGE CHANGE =         -33387.69
       --------------                             --------------
         LAND SURFACE =          20571.53           LAND SURFACE =         -29890.85
            SOIL ZONE =         902444.75              SOIL ZONE =          17979.54
     UNSATURATED ZONE =        -547243.20       UNSATURATED ZONE =         -18000.44
       SATURATED ZONE =         -68906.62         SATURATED ZONE =          -3475.93

 OVERALL BUDGET ERROR =          -2046.36           BUDGET ERROR =            -83.88


  PERCENT DISCREPANCY =             -0.19    PERCENT DISCREPANCY =             -0.25



1
 SUMMARY VOLUMETRIC BUDGET FOR GSFLOW 
 DATE: 11 04 1980              CUMULATIVE TIME STEP:      35
 MODFLOW STRESS PERIOD      2     CURRENT TIME STEP:      35     ITERATIONS:       8

 -----------------------------------------------------------------------------------

   CUMULATIVE VOLUMES               L**3   RATES FOR THIS TIME STEP           L**3/T
   ------------------                      ------------------------

                                     IN                                         IN
                                     --                                         --
        PRECIPITATION =        1070903.53          PRECIPITATION =                  
           STREAMFLOW =                               STREAMFLOW =                  
     GW BOUNDARY FLOW =                         GW BOUNDARY FLOW =                  


                                    OUT                                        OUT
                                    ---                                        ---
   EVAPOTRANSPIRATION =         814378.02     EVAPOTRANSPIRATION =          35711.25
           STREAMFLOW =         254115.05             STREAMFLOW =           7091.84
     GW BOUNDARY FLOW =          22707.14       GW BOUNDARY FLOW =            648.65

   INFLOWS - OUTFLOWS =         -20296.68     INFLOWS - OUTFLOWS =         -43451.74
             --------                                   --------

 TOTAL STORAGE CHANGE =         -17756.53         STORAGE CHANGE =         -43388.46
       --------------                             --------------
         LAND SURFACE =                             LAND SURFACE =                  
            SOIL ZONE =         748948.84              SOIL ZONE =         -21869.71
     UNSATURATED ZONE =        -670660.90       UNSATURATED ZONE =         -17362.87
       SATURATED ZONE =         -96044.47         SATURATED ZONE =          -4155.88

 OVERALL BUDGET ERROR =          -2540.15           BUDGET ERROR =            -63.28


  PERCENT DISCREPANCY =             -0.23    PERCENT DISCREPANCY =             -0.15



1
 SUMMARY VOLUMETRIC BUDGET FOR GSFLOW 
 DATE: 11 11 1980              CUMULATIVE TIME STEP:      42
 MODFLOW STRESS PERIOD      2     CURRENT TIME STEP:      42     ITERATIONS:       7

 -----------------------------------------------------------------------------------

   CUMULATIVE VOLUMES               L**3   RATES FOR THIS TIME STEP           L**3/T
   ------------------                      ------------------------

                                     IN                                         IN
                                     --                                         --
        PRECIPITATION =        1573762.54          PRECIPITATION =         255182.19
           STREAMFLOW =                               STREAMFLOW =                  
     GW BOUNDARY FLOW =                         GW BOUNDARY FLOW =                  


                                    OUT                                        OUT
                                    ---                                        ---
   EVAPOTRANSPIRATION =         998340.37     EVAPOTRANSPIRATION =          15410.74
           STREAMFLOW =         311069.76             STREAMFLOW =          10936.57
     GW BOUNDARY FLOW =          27247.98       GW BOUNDARY FLOW =            648.87

   INFLOWS - OUTFLOWS =         237104.43     INFLOWS - OUTFLOWS =         228186.02
             --------                                   --------

 TOTAL STORAGE CHANGE =         240172.68         STORAGE CHANGE =         228250.11
       --------------                             --------------
         LAND SURFACE =          76960.22           LAND SURFACE =          76747.38
            SOIL ZONE =        1078236.76              SOIL ZONE =         172100.76
     UNSATURATED ZONE =        -789152.11       UNSATURATED ZONE =         -16539.56
       SATURATED ZONE =        -125872.20         SATURATED ZONE =          -4058.47

 OVERALL BUDGET ERROR =          -3068.25           BUDGET ERROR =            -64.09


  PERCENT DISCREPANCY =             -0.19    PERCENT DISCREPANCY =             -0.03



1
 SUMMARY VOLUMETRIC BUDGET FOR GSFLOW 
 DATE: 11 18 1980              CUMULATIVE TIME STEP:      49
 MODFLOW STRESS PERIOD      2     CURRENT TIME STEP:      49     ITERATIONS:       7

 -----------------------------------------------------------------------------------

   CUMULATIVE VOLUMES               L**3   RATES FOR THIS TIME STEP           L**3/T
   ------------------                      ------------------------

                                     IN                                         IN
                                     --                                         --
        PRECIPITATION =        1573762.54          PRECIPITATION =                  
           STREAMFLOW =                               STREAMFLOW =                  
     GW BOUNDARY FLOW =                         GW BOUNDARY FLOW =                  


                                    OUT                                        OUT
                                    ---                                        ---
   EVAPOTRANSPIRATION =        1087408.51     EVAPOTRANSPIRATION =          14988.17
           STREAMFLOW =         374793.70             STREAMFLOW =           9429.67
     GW BOUNDARY FLOW =          31789.98       GW BOUNDARY FLOW =            648.88

   INFLOWS - OUTFLOWS =          79770.36     INFLOWS - OUTFLOWS =         -25066.72
             --------                                   --------

 TOTAL STORAGE CHANGE =          83459.77         STORAGE CHANGE =         -24987.63
       --------------                             --------------
         LAND SURFACE =           8139.47           LAND SURFACE =          -4965.50
            SOIL ZONE =        1136794.13              SOIL ZONE =            829.88
     UNSATURATED ZONE =        -903077.87       UNSATURATED ZONE =         -16033.19
       SATURATED ZONE =        -158395.96         SATURATED ZONE =          -4818.82

 OVERALL BUDGET ERROR =          -3689.42           BUDGET ERROR =            -79.09


  PERCENT DISCREPANCY =             -0.23    PERCENT DISCREPANCY =             -0.32



1
 SUMMARY VOLUMETRIC BUDGET FOR GSFLOW 
 DATE: 11 25 1980              CUMULATIVE TIME STEP:      56
 MODFLOW STRESS PERIOD      2     CURRENT TIME STEP:      56     ITERATIONS:       8

 -----------------------------------------------------------------------------------

   CUMULATIVE VOLUMES               L**3   RATES FOR THIS TIME STEP           L**3/T
   ------------------                      ------------------------

                                     IN                                         IN
                                     --                                         --
        PRECIPITATION =        1648816.13          PRECIPITATION =                  
           STREAMFLOW =                               STREAMFLOW =                  
     GW BOUNDARY FLOW =                         GW BOUNDARY FLOW =                  


                                    OUT                                        OUT
                                    ---                                        ---
   EVAPOTRANSPIRATION =        1162046.18     EVAPOTRANSPIRATION =           9313.15
           STREAMFLOW =         443041.65             STREAMFLOW =          10153.02
     GW BOUNDARY FLOW =          36332.39       GW BOUNDARY FLOW =            648.96

   INFLOWS - OUTFLOWS =           7395.91     INFLOWS - OUTFLOWS =         -20115.13
             --------                                   --------

 TOTAL STORAGE CHANGE =          11580.73         STORAGE CHANGE =         -20046.64
       --------------                             --------------
         LAND SURFACE =          54136.41           LAND SURFACE =          -9258.02
            SOIL ZONE =        1164548.53              SOIL ZONE =           9926.69
     UNSATURATED ZONE =       -1012774.40       UNSATURATED ZONE =         -15420.54
       SATURATED ZONE =        -194329.81         SATURATED ZONE =          -5294.77

 OVERALL BUDGET ERROR =          -4184.82           BUDGET ERROR =            -68.49


  PERCENT DISCREPANCY =             -0.25    PERCENT DISCREPANCY =             -0.34



1
 SUMMARY VOLUMETRIC BUDGET FOR GSFLOW 
 DATE: 12 02 1980              CUMULATIVE TIME STEP:      63
 MODFLOW STRESS PERIOD      2     CURRENT TIME STEP:      63     ITERATIONS:       7

 -----------------------------------------------------------------------------------

   CUMULATIVE VOLUMES               L**3   RATES FOR THIS TIME STEP           L**3/T
   ------------------                      ------------------------

                                     IN                                         IN
                                     --                                         --
        PRECIPITATION =        2076621.55          PRECIPITATION =                  
           STREAMFLOW =                               STREAMFLOW =                  
     GW BOUNDARY FLOW =                         GW BOUNDARY FLOW =                  


                                    OUT                                        OUT
                                    ---                                        ---
   EVAPOTRANSPIRATION =        1345735.73     EVAPOTRANSPIRATION =          33736.39
           STREAMFLOW =         529819.46             STREAMFLOW =          15726.10
     GW BOUNDARY FLOW =          40876.54       GW BOUNDARY FLOW =            649.48

   INFLOWS - OUTFLOWS =         160189.82     INFLOWS - OUTFLOWS =         -50111.97
             --------                                   --------

 TOTAL STORAGE CHANGE =         164843.26         STORAGE CHANGE =         -50035.04
       --------------                             --------------
         LAND SURFACE =         157031.21           LAND SURFACE =         -76789.76
            SOIL ZONE =        1351994.73              SOIL ZONE =          44090.71
     UNSATURATED ZONE =       -1114107.13       UNSATURATED ZONE =         -12813.15
       SATURATED ZONE =        -230075.55         SATURATED ZONE =          -4522.84

 OVERALL BUDGET ERROR =          -4653.43           BUDGET ERROR =            -76.93


  PERCENT DISCREPANCY =             -0.22    PERCENT DISCREPANCY =             -0.15



1
 SUMMARY VOLUMETRIC BUDGET FOR GSFLOW 
 DATE: 12 09 1980              CUMULATIVE TIME STEP:      70
 MODFLOW STRESS PERIOD      2     CURRENT TIME STEP:      70     ITERATIONS:       8

 -----------------------------------------------------------------------------------

   CUMULATIVE VOLUMES               L**3   RATES FOR THIS TIME STEP           L**3/T
   ------------------                      ------------------------

                                     IN                                         IN
                                     --                                         --
        PRECIPITATION =        4284363.63          PRECIPITATION =                  
           STREAMFLOW =                               STREAMFLOW =                  
     GW BOUNDARY FLOW =                         GW BOUNDARY FLOW =                  


                                    OUT                                        OUT
                                    ---                                        ---
   EVAPOTRANSPIRATION =        1371374.51     EVAPOTRANSPIRATION =           3258.35
           STREAMFLOW =         632198.75             STREAMFLOW =          14919.54
     GW BOUNDARY FLOW =          45423.76       GW BOUNDARY FLOW =            649.70

   INFLOWS - OUTFLOWS =        2235366.61     INFLOWS - OUTFLOWS =         -18827.59
             --------                                   --------

 TOTAL STORAGE CHANGE =        2240513.16         STORAGE CHANGE =         -18773.59
       --------------                             --------------
         LAND SURFACE =        2337504.39           LAND SURFACE =          -3258.35
            SOIL ZONE =        1384353.87              SOIL ZONE =           4693.91
     UNSATURATED ZONE =       -1212085.96       UNSATURATED ZONE =         -14206.66
       SATURATED ZONE =        -269259.14         SATURATED ZONE =          -6002.48

 OVERALL BUDGET ERROR =          -5146.55           BUDGET ERROR =            -54.01


  PERCENT DISCREPANCY =             -0.12    PERCENT DISCREPANCY =             -0.29



1
 SUMMARY VOLUMETRIC BUDGET FOR GSFLOW 
 DATE: 12 16 1980              CUMULATIVE TIME STEP:      77
 MODFLOW STRESS PERIOD      2     CURRENT TIME STEP:      77     ITERATIONS:       7

 -----------------------------------------------------------------------------------

   CUMULATIVE VOLUMES               L**3   RATES FOR THIS TIME STEP           L**3/T
   ------------------                      ------------------------

                                     IN                                         IN
                                     --                                         --
        PRECIPITATION =        4284363.63          PRECIPITATION =                  
           STREAMFLOW =                               STREAMFLOW =                  
     GW BOUNDARY FLOW =                         GW BOUNDARY FLOW =                  


                                    OUT                                        OUT
                                    ---                                        ---
   EVAPOTRANSPIRATION =        1515999.55     EVAPOTRANSPIRATION =          34476.11
           STREAMFLOW =         755868.11             STREAMFLOW =          25704.69
     GW BOUNDARY FLOW =          49972.76       GW BOUNDARY FLOW =            650.31

   INFLOWS - OUTFLOWS =        1962523.22     INFLOWS - OUTFLOWS =         -60831.11
             --------                                   --------

 TOTAL STORAGE CHANGE =        1968111.61         STORAGE CHANGE =         -60763.09
       --------------                             --------------
         LAND SURFACE =        2017009.26           LAND SURFACE =        -133032.45
            SOIL ZONE =        1561951.93              SOIL ZONE =          85365.23
     UNSATURATED ZONE =       -1301473.13       UNSATURATED ZONE =          -8792.66
       SATURATED ZONE =        -309376.44         SATURATED ZONE =          -4303.22

 OVERALL BUDGET ERROR =          -5588.40           BUDGET ERROR =            -68.01


  PERCENT DISCREPANCY =             -0.13    PERCENT DISCREPANCY =             -0.11



1
 SUMMARY VOLUMETRIC BUDGET FOR GSFLOW 
 DATE: 12 23 1980              CUMULATIVE TIME STEP:      84
 MODFLOW STRESS PERIOD      2     CURRENT TIME STEP:      84     ITERATIONS:       9

 -----------------------------------------------------------------------------------

   CUMULATIVE VOLUMES               L**3   RATES FOR THIS TIME STEP           L**3/T
   ------------------                      ------------------------

                                     IN                                         IN
                                     --                                         --
        PRECIPITATION =        4516757.54          PRECIPITATION =                  
           STREAMFLOW =                               STREAMFLOW =                  
     GW BOUNDARY FLOW =                         GW BOUNDARY FLOW =                  


                                    OUT                                        OUT
                                    ---                                        ---
   EVAPOTRANSPIRATION =        1724225.67     EVAPOTRANSPIRATION =          35848.50
           STREAMFLOW =         991051.69             STREAMFLOW =          31517.92
     GW BOUNDARY FLOW =          54533.77       GW BOUNDARY FLOW =            652.04

   INFLOWS - OUTFLOWS =        1746946.40     INFLOWS - OUTFLOWS =         -68018.46
             --------                                   --------

 TOTAL STORAGE CHANGE =        1752843.39         STORAGE CHANGE =         -67990.27
       --------------                             --------------
         LAND SURFACE =        1391476.44           LAND SURFACE =         -50626.27
            SOIL ZONE =        2035493.24              SOIL ZONE =          -8887.33
     UNSATURATED ZONE =       -1337442.77       UNSATURATED ZONE =          -4059.57
       SATURATED ZONE =        -336683.52         SATURATED ZONE =          -4417.10

 OVERALL BUDGET ERROR =          -5896.98           BUDGET ERROR =            -28.19


  PERCENT DISCREPANCY =             -0.13    PERCENT DISCREPANCY =             -0.04



1
 SUMMARY VOLUMETRIC BUDGET FOR GSFLOW 
 DATE: 12 30 1980              CUMULATIVE TIME STEP:      91
 MODFLOW STRESS PERIOD      2     CURRENT TIME STEP:      91     ITERATIONS:      11

 -----------------------------------------------------------------------------------

   CUMULATIVE VOLUMES               L**3   RATES FOR THIS TIME STEP           L**3/T
   ------------------                      ------------------------

                                     IN                                         IN
                                     --                                         --
        PRECIPITATION =        4516757.54          PRECIPITATION =                  
           STREAMFLOW =                               STREAMFLOW =                  
     GW BOUNDARY FLOW =                         GW BOUNDARY FLOW =                  


                                    OUT                                        OUT
                                    ---                                        ---
   EVAPOTRANSPIRATION =        2091947.93     EVAPOTRANSPIRATION =          47015.27
           STREAMFLOW =        1247158.23             STREAMFLOW =          28287.13
     GW BOUNDARY FLOW =          59101.44       GW BOUNDARY FLOW =            652.50

   INFLOWS - OUTFLOWS =        1118549.94     INFLOWS - OUTFLOWS =         -75954.89
             --------                                   --------

 TOTAL STORAGE CHANGE =        1124620.96         STORAGE CHANGE =         -75937.14
       --------------                             --------------
         LAND SURFACE =         579625.22           LAND SURFACE =         -42433.18
            SOIL ZONE =        2238707.69              SOIL ZONE =         -26087.04
     UNSATURATED ZONE =       -1334389.26       UNSATURATED ZONE =          -3539.84
       SATURATED ZONE =        -359322.69         SATURATED ZONE =          -3877.09

 OVERALL BUDGET ERROR =          -6071.02           BUDGET ERROR =            -17.75


  PERCENT DISCREPANCY =             -0.13    PERCENT DISCREPANCY =             -0.02



1
 SUMMARY VOLUMETRIC BUDGET FOR GSFLOW 
 DATE: 01 06 1981              CUMULATIVE TIME STEP:      98
 MODFLOW STRESS PERIOD      2     CURRENT TIME STEP:      98     ITERATIONS:       8

 -----------------------------------------------------------------------------------

   CUMULATIVE VOLUMES               L**3   RATES FOR THIS TIME STEP           L**3/T
   ------------------                      ------------------------

                                     IN                                         IN
                                     --                                         --
        PRECIPITATION =        5004445.43          PRECIPITATION =                  
           STREAMFLOW =                               STREAMFLOW =                  
     GW BOUNDARY FLOW =                         GW BOUNDARY FLOW =                  


                                    OUT                                        OUT
                                    ---                                        ---
   EVAPOTRANSPIRATION =        2309635.09     EVAPOTRANSPIRATION =          18975.60
           STREAMFLOW =        1398179.17             STREAMFLOW =          20335.46
     GW BOUNDARY FLOW =          63663.05       GW BOUNDARY FLOW =            651.18

   INFLOWS - OUTFLOWS =        1232968.12     INFLOWS - OUTFLOWS =         -39962.24
             --------                                   --------

 TOTAL STORAGE CHANGE =        1239242.93         STORAGE CHANGE =         -39920.87
       --------------                             --------------
         LAND SURFACE =         840075.41           LAND SURFACE =         -25549.73
            SOIL ZONE =        2200165.99              SOIL ZONE =           3090.71
     UNSATURATED ZONE =       -1404065.10       UNSATURATED ZONE =         -11591.00
       SATURATED ZONE =        -396933.36         SATURATED ZONE =          -5870.86

 OVERALL BUDGET ERROR =          -6274.82           BUDGET ERROR =            -41.36


  PERCENT DISCREPANCY =             -0.13    PERCENT DISCREPANCY =             -0.10



1
 SUMMARY VOLUMETRIC BUDGET FOR GSFLOW 
 DATE: 01 13 1981              CUMULATIVE TIME STEP:     105
 MODFLOW STRESS PERIOD      2     CURRENT TIME STEP:     105     ITERATIONS:       8

 -----------------------------------------------------------------------------------

   CUMULATIVE VOLUMES               L**3   RATES FOR THIS TIME STEP           L**3/T
   ------------------                      ------------------------

                                     IN                                         IN
                                     --                                         --
        PRECIPITATION =        5004445.43          PRECIPITATION =                  
           STREAMFLOW =                               STREAMFLOW =                  
     GW BOUNDARY FLOW =                         GW BOUNDARY FLOW =                  


                                    OUT                                        OUT
                                    ---                                        ---
   EVAPOTRANSPIRATION =        2511378.72     EVAPOTRANSPIRATION =          41906.73
           STREAMFLOW =        1543820.66             STREAMFLOW =          20114.76
     GW BOUNDARY FLOW =          68219.91       GW BOUNDARY FLOW =            650.83

   INFLOWS - OUTFLOWS =         881026.15     INFLOWS - OUTFLOWS =         -62672.32
             --------                                   --------

 TOTAL STORAGE CHANGE =         887561.02         STORAGE CHANGE =         -62632.53
       --------------                             --------------
         LAND SURFACE =         624161.65           LAND SURFACE =         -38673.92
            SOIL ZONE =        2177303.47              SOIL ZONE =          -8484.49
     UNSATURATED ZONE =       -1473882.87       UNSATURATED ZONE =          -9363.59
       SATURATED ZONE =        -440021.23         SATURATED ZONE =          -6110.53

 OVERALL BUDGET ERROR =          -6534.87           BUDGET ERROR =            -39.79


  PERCENT DISCREPANCY =             -0.13    PERCENT DISCREPANCY =             -0.06



1
 SUMMARY VOLUMETRIC BUDGET FOR GSFLOW 
 DATE: 01 20 1981              CUMULATIVE TIME STEP:     112
 MODFLOW STRESS PERIOD      2     CURRENT TIME STEP:     112     ITERATIONS:      11

 -----------------------------------------------------------------------------------

   CUMULATIVE VOLUMES               L**3   RATES FOR THIS TIME STEP           L**3/T
   ------------------                      ------------------------

                                     IN                                         IN
                                     --                                         --
        PRECIPITATION =        5170466.84          PRECIPITATION =          41505.35
           STREAMFLOW =                               STREAMFLOW =                  
     GW BOUNDARY FLOW =                         GW BOUNDARY FLOW =                  


                                    OUT                                        OUT
                                    ---                                        ---
   EVAPOTRANSPIRATION =        2776276.16     EVAPOTRANSPIRATION =          31075.53
           STREAMFLOW =        1686866.12             STREAMFLOW =          20142.42
     GW BOUNDARY FLOW =          72774.87       GW BOUNDARY FLOW =            650.65

   INFLOWS - OUTFLOWS =         634549.69     INFLOWS - OUTFLOWS =         -10363.26
             --------                                   --------

 TOTAL STORAGE CHANGE =         641425.80         STORAGE CHANGE =         -10341.60
       --------------                             --------------
         LAND SURFACE =         464145.89           LAND SURFACE =           8501.89
            SOIL ZONE =        2169760.11              SOIL ZONE =          -9798.70
     UNSATURATED ZONE =       -1507464.95       UNSATURATED ZONE =          -2399.52
       SATURATED ZONE =        -485015.26         SATURATED ZONE =          -6645.27

 OVERALL BUDGET ERROR =          -6876.11           BUDGET ERROR =            -21.66


  PERCENT DISCREPANCY =             -0.13    PERCENT DISCREPANCY =             -0.04



1
 SUMMARY VOLUMETRIC BUDGET FOR GSFLOW 
 DATE: 01 27 1981              CUMULATIVE TIME STEP:     119
 MODFLOW STRESS PERIOD      2     CURRENT TIME STEP:     119     ITERATIONS:       8

 -----------------------------------------------------------------------------------

   CUMULATIVE VOLUMES               L**3   RATES FOR THIS TIME STEP           L**3/T
   ------------------                      ------------------------

                                     IN                                         IN
                                     --                                         --
        PRECIPITATION =        8646540.08          PRECIPITATION =        2936503.63
           STREAMFLOW =                               STREAMFLOW =                  
     GW BOUNDARY FLOW =                         GW BOUNDARY FLOW =                  


                                    OUT                                        OUT
                                    ---                                        ---
   EVAPOTRANSPIRATION =        2998349.05     EVAPOTRANSPIRATION =          12639.57
           STREAMFLOW =        1831339.56             STREAMFLOW =          18645.38
     GW BOUNDARY FLOW =          77329.16       GW BOUNDARY FLOW =            650.43

   INFLOWS - OUTFLOWS =        3739522.31     INFLOWS - OUTFLOWS =        2904568.25
             --------                                   --------

 TOTAL STORAGE CHANGE =        3746596.91         STORAGE CHANGE =        2904602.01
       --------------                             --------------
         LAND SURFACE =        3592460.11           LAND SURFACE =        2923864.12
            SOIL ZONE =        2190150.54              SOIL ZONE =          -6280.12
     UNSATURATED ZONE =       -1505514.81       UNSATURATED ZONE =          -6119.49
       SATURATED ZONE =        -530498.94         SATURATED ZONE =          -6862.51

 OVERALL BUDGET ERROR =          -7074.60           BUDGET ERROR =            -33.76


  PERCENT DISCREPANCY =             -0.08    PERCENT DISCREPANCY =             -0.00



1
 SUMMARY VOLUMETRIC BUDGET FOR GSFLOW 
 DATE: 02 03 1981              CUMULATIVE TIME STEP:     126
 MODFLOW STRESS PERIOD      2     CURRENT TIME STEP:     126     ITERATIONS:       8

 -----------------------------------------------------------------------------------

   CUMULATIVE VOLUMES               L**3   RATES FOR THIS TIME STEP           L**3/T
   ------------------                      ------------------------

                                     IN                                         IN
                                     --                                         --
        PRECIPITATION =        1.1739D+07          PRECIPITATION =                  
           STREAMFLOW =                               STREAMFLOW =                  
     GW BOUNDARY FLOW =                         GW BOUNDARY FLOW =                  


                                    OUT                                        OUT
                                    ---                                        ---
   EVAPOTRANSPIRATION =        3033540.41     EVAPOTRANSPIRATION =           7106.06
           STREAMFLOW =        1958467.22             STREAMFLOW =          18061.27
     GW BOUNDARY FLOW =          81881.30       GW BOUNDARY FLOW =            650.26

   INFLOWS - OUTFLOWS =        6664799.83     INFLOWS - OUTFLOWS =         -25817.59
             --------                                   --------

 TOTAL STORAGE CHANGE =        6672076.18         STORAGE CHANGE =         -25787.89
       --------------                             --------------
         LAND SURFACE =        6649417.45           LAND SURFACE =          -7106.06
            SOIL ZONE =        2182101.47              SOIL ZONE =            508.76
     UNSATURATED ZONE =       -1577602.00       UNSATURATED ZONE =         -11481.22
       SATURATED ZONE =        -581840.74         SATURATED ZONE =          -7709.36

 OVERALL BUDGET ERROR =          -7276.35           BUDGET ERROR =            -29.70


  PERCENT DISCREPANCY =             -0.06    PERCENT DISCREPANCY =             -0.12



1
 SUMMARY VOLUMETRIC BUDGET FOR GSFLOW 
 DATE: 02 10 1981              CUMULATIVE TIME STEP:     133
 MODFLOW STRESS PERIOD      2     CURRENT TIME STEP:     133     ITERATIONS:       7

 -----------------------------------------------------------------------------------

   CUMULATIVE VOLUMES               L**3   RATES FOR THIS TIME STEP           L**3/T
   ------------------                      ------------------------

                                     IN                                         IN
                                     --                                         --
        PRECIPITATION =        1.1838D+07          PRECIPITATION =                  
           STREAMFLOW =                               STREAMFLOW =                  
     GW BOUNDARY FLOW =                         GW BOUNDARY FLOW =                  


                                    OUT                                        OUT
                                    ---                                        ---
   EVAPOTRANSPIRATION =        3154643.93     EVAPOTRANSPIRATION =          32343.27
           STREAMFLOW =        2085104.98             STREAMFLOW =          18110.72
     GW BOUNDARY FLOW =          86433.11       GW BOUNDARY FLOW =            650.25

   INFLOWS - OUTFLOWS =        6512071.26     INFLOWS - OUTFLOWS =         -51104.24
             --------                                   --------

 TOTAL STORAGE CHANGE =        6519719.00         STORAGE CHANGE =         -51041.17
       --------------                             --------------
         LAND SURFACE =        6627878.44           LAND SURFACE =         -32343.27
            SOIL ZONE =        2186059.61              SOIL ZONE =            522.60
     UNSATURATED ZONE =       -1655566.96       UNSATURATED ZONE =         -10794.57
       SATURATED ZONE =        -638652.09         SATURATED ZONE =          -8425.93

 OVERALL BUDGET ERROR =          -7647.74           BUDGET ERROR =            -63.07


  PERCENT DISCREPANCY =             -0.06    PERCENT DISCREPANCY =             -0.12



1
 SUMMARY VOLUMETRIC BUDGET FOR GSFLOW 
 DATE: 02 17 1981              CUMULATIVE TIME STEP:     140
 MODFLOW STRESS PERIOD      2     CURRENT TIME STEP:     140     ITERATIONS:      15

 -----------------------------------------------------------------------------------

   CUMULATIVE VOLUMES               L**3   RATES FOR THIS TIME STEP           L**3/T
   ------------------                      ------------------------

                                     IN                                         IN
                                     --                                         --
        PRECIPITATION =        1.2765D+07          PRECIPITATION =          68929.28
           STREAMFLOW =                               STREAMFLOW =                  
     GW BOUNDARY FLOW =                         GW BOUNDARY FLOW =                  


                                    OUT                                        OUT
                                    ---                                        ---
   EVAPOTRANSPIRATION =        3480410.82     EVAPOTRANSPIRATION =          59831.41
           STREAMFLOW =        2605803.41             STREAMFLOW =         121413.85
     GW BOUNDARY FLOW =          91005.97       GW BOUNDARY FLOW =            656.65

   INFLOWS - OUTFLOWS =        6587748.91     INFLOWS - OUTFLOWS =        -112972.64
             --------                                   --------

 TOTAL STORAGE CHANGE =        6595671.83         STORAGE CHANGE =        -112961.31
       --------------                             --------------
         LAND SURFACE =        5733342.67           LAND SURFACE =        -263707.48
            SOIL ZONE =        2945964.23              SOIL ZONE =          72918.19
     UNSATURATED ZONE =       -1426394.44       UNSATURATED ZONE =          75633.22
       SATURATED ZONE =        -657240.62         SATURATED ZONE =           2194.76

 OVERALL BUDGET ERROR =          -7922.93           BUDGET ERROR =            -11.33


  PERCENT DISCREPANCY =             -0.06    PERCENT DISCREPANCY =             -0.01



1
 SUMMARY VOLUMETRIC BUDGET FOR GSFLOW 
 DATE: 02 24 1981              CUMULATIVE TIME STEP:     147
 MODFLOW STRESS PERIOD      2     CURRENT TIME STEP:     147     ITERATIONS:      14

 -----------------------------------------------------------------------------------

   CUMULATIVE VOLUMES               L**3   RATES FOR THIS TIME STEP           L**3/T
   ------------------                      ------------------------

                                     IN                                         IN
                                     --                                         --
        PRECIPITATION =        1.3179D+07          PRECIPITATION =         344646.37
           STREAMFLOW =                               STREAMFLOW =                  
     GW BOUNDARY FLOW =                         GW BOUNDARY FLOW =                  


                                    OUT                                        OUT
                                    ---                                        ---
   EVAPOTRANSPIRATION =        3812786.91     EVAPOTRANSPIRATION =          18156.56
           STREAMFLOW =        3160290.10             STREAMFLOW =          50195.30
     GW BOUNDARY FLOW =          95598.63       GW BOUNDARY FLOW =            655.07

   INFLOWS - OUTFLOWS =        6109869.11     INFLOWS - OUTFLOWS =         275639.43
             --------                                   --------

 TOTAL STORAGE CHANGE =        6117774.58         STORAGE CHANGE =         275629.94
       --------------                             --------------
         LAND SURFACE =        5134001.49           LAND SURFACE =         302140.02
            SOIL ZONE =        2690488.65              SOIL ZONE =         -55972.97
     UNSATURATED ZONE =       -1071397.54       UNSATURATED ZONE =          27318.12
       SATURATED ZONE =        -635318.03         SATURATED ZONE =           2144.78

 OVERALL BUDGET ERROR =          -7905.47           BUDGET ERROR =              9.49


  PERCENT DISCREPANCY =             -0.06    PERCENT DISCREPANCY =              0.00



1
 SUMMARY VOLUMETRIC BUDGET FOR GSFLOW 
 DATE: 03 03 1981              CUMULATIVE TIME STEP:     154
 MODFLOW STRESS PERIOD      2     CURRENT TIME STEP:     154     ITERATIONS:      11

 -----------------------------------------------------------------------------------

   CUMULATIVE VOLUMES               L**3   RATES FOR THIS TIME STEP           L**3/T
   ------------------                      ------------------------

                                     IN                                         IN
                                     --                                         --
        PRECIPITATION =        1.3447D+07          PRECIPITATION =                  
           STREAMFLOW =                               STREAMFLOW =                  
     GW BOUNDARY FLOW =                         GW BOUNDARY FLOW =                  


                                    OUT                                        OUT
                                    ---                                        ---
   EVAPOTRANSPIRATION =        3959572.88     EVAPOTRANSPIRATION =          40644.00
           STREAMFLOW =        3381110.13             STREAMFLOW =          27138.61
     GW BOUNDARY FLOW =         100171.21       GW BOUNDARY FLOW =            652.27

   INFLOWS - OUTFLOWS =        6005748.82     INFLOWS - OUTFLOWS =         -68434.88
             --------                                   --------

 TOTAL STORAGE CHANGE =        6013541.64         STORAGE CHANGE =         -68450.36
       --------------                             --------------
         LAND SURFACE =        5236571.40           LAND SURFACE =         -57449.18
            SOIL ZONE =        2485032.75              SOIL ZONE =            470.34
     UNSATURATED ZONE =       -1067164.82       UNSATURATED ZONE =          -9159.76
       SATURATED ZONE =        -640897.68         SATURATED ZONE =          -2311.77

 OVERALL BUDGET ERROR =          -7792.82           BUDGET ERROR =             15.49


  PERCENT DISCREPANCY =             -0.06    PERCENT DISCREPANCY =              0.02



1
 SUMMARY VOLUMETRIC BUDGET FOR GSFLOW 
 DATE: 03 10 1981              CUMULATIVE TIME STEP:     161
 MODFLOW STRESS PERIOD      2     CURRENT TIME STEP:     161     ITERATIONS:      11

 -----------------------------------------------------------------------------------

   CUMULATIVE VOLUMES               L**3   RATES FOR THIS TIME STEP           L**3/T
   ------------------                      ------------------------

                                     IN                                         IN
                                     --                                         --
        PRECIPITATION =        1.3493D+07          PRECIPITATION =                  
           STREAMFLOW =                               STREAMFLOW =                  
     GW BOUNDARY FLOW =                         GW BOUNDARY FLOW =                  


                                    OUT                                        OUT
                                    ---                                        ---
   EVAPOTRANSPIRATION =        4271433.01     EVAPOTRANSPIRATION =          67192.35
           STREAMFLOW =        3602275.42             STREAMFLOW =          40300.30
     GW BOUNDARY FLOW =         104736.24       GW BOUNDARY FLOW =            652.70

   INFLOWS - OUTFLOWS =        5514496.49     INFLOWS - OUTFLOWS =        -108145.34
             --------                                   --------

 TOTAL STORAGE CHANGE =        5522230.80         STORAGE CHANGE =        -108147.61
       --------------                             --------------
         LAND SURFACE =        4665498.34           LAND SURFACE =        -147188.93
            SOIL ZONE =        2573554.37              SOIL ZONE =          24803.01
     UNSATURATED ZONE =       -1059889.97       UNSATURATED ZONE =          15420.78
       SATURATED ZONE =        -656931.94         SATURATED ZONE =          -1182.46

 OVERALL BUDGET ERROR =          -7734.31           BUDGET ERROR =              2.26


  PERCENT DISCREPANCY =             -0.06    PERCENT DISCREPANCY =              0.00



1
 SUMMARY VOLUMETRIC BUDGET FOR GSFLOW 
 DATE: 03 17 1981              CUMULATIVE TIME STEP:     168
 MODFLOW STRESS PERIOD      2     CURRENT TIME STEP:     168     ITERATIONS:       9

 -----------------------------------------------------------------------------------

   CUMULATIVE VOLUMES               L**3   RATES FOR THIS TIME STEP           L**3/T
   ------------------                      ------------------------

                                     IN                                         IN
                                     --                                         --
        PRECIPITATION =        1.3744D+07          PRECIPITATION =                  
           STREAMFLOW =                               STREAMFLOW =                  
     GW BOUNDARY FLOW =                         GW BOUNDARY FLOW =                  


                                    OUT                                        OUT
                                    ---                                        ---
   EVAPOTRANSPIRATION =        4588105.69     EVAPOTRANSPIRATION =          33262.65
           STREAMFLOW =        3818904.16             STREAMFLOW =          23613.57
     GW BOUNDARY FLOW =         109302.40       GW BOUNDARY FLOW =            651.78

   INFLOWS - OUTFLOWS =        5228178.64     INFLOWS - OUTFLOWS =         -57528.00
             --------                                   --------

 TOTAL STORAGE CHANGE =        5235862.94         STORAGE CHANGE =         -57535.77
       --------------                             --------------
         LAND SURFACE =        4532338.70           LAND SURFACE =         -32994.50
            SOIL ZONE =        2437558.53              SOIL ZONE =          -5001.37
     UNSATURATED ZONE =       -1056466.98       UNSATURATED ZONE =         -14847.61
       SATURATED ZONE =        -677567.31         SATURATED ZONE =          -4692.29

 OVERALL BUDGET ERROR =          -7684.29           BUDGET ERROR =              7.77


  PERCENT DISCREPANCY =             -0.06    PERCENT DISCREPANCY =              0.01



1
 SUMMARY VOLUMETRIC BUDGET FOR GSFLOW 
 DATE: 03 24 1981              CUMULATIVE TIME STEP:     175
 MODFLOW STRESS PERIOD      2     CURRENT TIME STEP:     175     ITERATIONS:       9

 -----------------------------------------------------------------------------------

   CUMULATIVE VOLUMES               L**3   RATES FOR THIS TIME STEP           L**3/T
   ------------------                      ------------------------

                                     IN                                         IN
                                     --                                         --
        PRECIPITATION =        1.4367D+07          PRECIPITATION =                  
           STREAMFLOW =                               STREAMFLOW =                  
     GW BOUNDARY FLOW =                         GW BOUNDARY FLOW =                  


                                    OUT                                        OUT
                                    ---                                        ---
   EVAPOTRANSPIRATION =        4907928.96     EVAPOTRANSPIRATION =          80764.17
           STREAMFLOW =        3983603.14             STREAMFLOW =          25036.04
     GW BOUNDARY FLOW =         113861.88       GW BOUNDARY FLOW =            651.26

   INFLOWS - OUTFLOWS =        5361351.54     INFLOWS - OUTFLOWS =        -106451.47
             --------                                   --------

 TOTAL STORAGE CHANGE =        5369054.91         STORAGE CHANGE =        -106447.73
       --------------                             --------------
         LAND SURFACE =        4882235.51           LAND SURFACE =         -56598.13
            SOIL ZONE =        2339297.52              SOIL ZONE =         -37991.44
     UNSATURATED ZONE =       -1136916.01       UNSATURATED ZONE =          -6407.27
       SATURATED ZONE =        -715562.12         SATURATED ZONE =          -5450.90

 OVERALL BUDGET ERROR =          -7703.37           BUDGET ERROR =             -3.74


  PERCENT DISCREPANCY =             -0.05    PERCENT DISCREPANCY =             -0.00



1
 SUMMARY VOLUMETRIC BUDGET FOR GSFLOW 
 DATE: 03 31 1981              CUMULATIVE TIME STEP:     182
 MODFLOW STRESS PERIOD      2     CURRENT TIME STEP:     182     ITERATIONS:      12

 -----------------------------------------------------------------------------------

   CUMULATIVE VOLUMES               L**3   RATES FOR THIS TIME STEP           L**3/T
   ------------------                      ------------------------

                                     IN                                         IN
                                     --                                         --
        PRECIPITATION =        1.5777D+07          PRECIPITATION =                  
           STREAMFLOW =                               STREAMFLOW =                  
     GW BOUNDARY FLOW =                         GW BOUNDARY FLOW =                  


                                    OUT                                        OUT
                                    ---                                        ---
   EVAPOTRANSPIRATION =        5296102.26     EVAPOTRANSPIRATION =          42424.06
           STREAMFLOW =        4431617.89             STREAMFLOW =          33654.95
     GW BOUNDARY FLOW =         118440.23       GW BOUNDARY FLOW =            653.15

   INFLOWS - OUTFLOWS =        5930587.61     INFLOWS - OUTFLOWS =         -76732.15
             --------                                   --------

 TOTAL STORAGE CHANGE =        5938243.56         STORAGE CHANGE =         -76740.70
       --------------                             --------------
         LAND SURFACE =        5101875.75           LAND SURFACE =         -42987.31
            SOIL ZONE =        2505864.09              SOIL ZONE =         -32433.09
     UNSATURATED ZONE =        -950234.72       UNSATURATED ZONE =           1116.47
       SATURATED ZONE =        -719261.56         SATURATED ZONE =          -2436.77

 OVERALL BUDGET ERROR =          -7655.95           BUDGET ERROR =              8.55


  PERCENT DISCREPANCY =             -0.05    PERCENT DISCREPANCY =              0.01



1
 SUMMARY VOLUMETRIC BUDGET FOR GSFLOW 
 DATE: 04 07 1981              CUMULATIVE TIME STEP:     189
 MODFLOW STRESS PERIOD      2     CURRENT TIME STEP:     189     ITERATIONS:      10

 -----------------------------------------------------------------------------------

   CUMULATIVE VOLUMES               L**3   RATES FOR THIS TIME STEP           L**3/T
   ------------------                      ------------------------

                                     IN                                         IN
                                     --                                         --
        PRECIPITATION =        1.6121D+07          PRECIPITATION =                  
           STREAMFLOW =                               STREAMFLOW =                  
     GW BOUNDARY FLOW =                         GW BOUNDARY FLOW =                  


                                    OUT                                        OUT
                                    ---                                        ---
   EVAPOTRANSPIRATION =        5890551.06     EVAPOTRANSPIRATION =          97287.85
           STREAMFLOW =        4726430.40             STREAMFLOW =          42143.10
     GW BOUNDARY FLOW =         123013.17       GW BOUNDARY FLOW =            653.55

   INFLOWS - OUTFLOWS =        5381472.97     INFLOWS - OUTFLOWS =        -140084.51
             --------                                   --------

 TOTAL STORAGE CHANGE =        5389062.01         STORAGE CHANGE =        -140099.16
       --------------                             --------------
         LAND SURFACE =        4536824.49           LAND SURFACE =        -138203.79
            SOIL ZONE =        2467307.09              SOIL ZONE =         -11864.56
     UNSATURATED ZONE =        -886400.54       UNSATURATED ZONE =          10706.02
       SATURATED ZONE =        -728669.03         SATURATED ZONE =           -736.83

 OVERALL BUDGET ERROR =          -7589.04           BUDGET ERROR =             14.65


  PERCENT DISCREPANCY =             -0.05    PERCENT DISCREPANCY =              0.01



1
 SUMMARY VOLUMETRIC BUDGET FOR GSFLOW 
 DATE: 04 14 1981              CUMULATIVE TIME STEP:     196
 MODFLOW STRESS PERIOD      2     CURRENT TIME STEP:     196     ITERATIONS:      13

 -----------------------------------------------------------------------------------

   CUMULATIVE VOLUMES               L**3   RATES FOR THIS TIME STEP           L**3/T
   ------------------                      ------------------------

                                     IN                                         IN
                                     --                                         --
        PRECIPITATION =        1.6121D+07          PRECIPITATION =                  
           STREAMFLOW =                               STREAMFLOW =                  
     GW BOUNDARY FLOW =                         GW BOUNDARY FLOW =                  


                                    OUT                                        OUT
                                    ---                                        ---
   EVAPOTRANSPIRATION =        6753980.22     EVAPOTRANSPIRATION =         187136.52
           STREAMFLOW =        5063994.08             STREAMFLOW =          60930.12
     GW BOUNDARY FLOW =         127588.87       GW BOUNDARY FLOW =            653.96

   INFLOWS - OUTFLOWS =        4175904.43     INFLOWS - OUTFLOWS =        -248720.60
             --------                                   --------

 TOTAL STORAGE CHANGE =        4183381.80         STORAGE CHANGE =        -248726.08
       --------------                             --------------
         LAND SURFACE =        3249108.87           LAND SURFACE =        -276414.16
            SOIL ZONE =        2439003.67              SOIL ZONE =           -676.08
     UNSATURATED ZONE =        -775425.53       UNSATURATED ZONE =          26586.17
       SATURATED ZONE =        -729305.20         SATURATED ZONE =           1778.00

 OVERALL BUDGET ERROR =          -7477.37           BUDGET ERROR =              5.47


  PERCENT DISCREPANCY =             -0.05    PERCENT DISCREPANCY =              0.00



1
 SUMMARY VOLUMETRIC BUDGET FOR GSFLOW 
 DATE: 04 21 1981              CUMULATIVE TIME STEP:     203
 MODFLOW STRESS PERIOD      2     CURRENT TIME STEP:     203     ITERATIONS:      14

 -----------------------------------------------------------------------------------

   CUMULATIVE VOLUMES               L**3   RATES FOR THIS TIME STEP           L**3/T
   ------------------                      ------------------------

                                     IN                                         IN
                                     --                                         --
        PRECIPITATION =        1.6310D+07          PRECIPITATION =                  
           STREAMFLOW =                               STREAMFLOW =                  
     GW BOUNDARY FLOW =                         GW BOUNDARY FLOW =                  


                                    OUT                                        OUT
                                    ---                                        ---
   EVAPOTRANSPIRATION =        7798380.19     EVAPOTRANSPIRATION =         153837.65
           STREAMFLOW =        5451055.16             STREAMFLOW =          53926.01
     GW BOUNDARY FLOW =         132163.26       GW BOUNDARY FLOW =            653.13

   INFLOWS - OUTFLOWS =        2928644.02     INFLOWS - OUTFLOWS =        -208416.79
             --------                                   --------

 TOTAL STORAGE CHANGE =        2936026.40         STORAGE CHANGE =        -208419.38
       --------------                             --------------
         LAND SURFACE =        1941586.44           LAND SURFACE =        -141315.80
            SOIL ZONE =        2325110.47              SOIL ZONE =         -93516.15
     UNSATURATED ZONE =        -618470.68       UNSATURATED ZONE =          23247.54
       SATURATED ZONE =        -712199.82         SATURATED ZONE =           3165.02

 OVERALL BUDGET ERROR =          -7382.38           BUDGET ERROR =              2.59


  PERCENT DISCREPANCY =             -0.05    PERCENT DISCREPANCY =              0.00



1
 SUMMARY VOLUMETRIC BUDGET FOR GSFLOW 
 DATE: 04 28 1981              CUMULATIVE TIME STEP:     210
 MODFLOW STRESS PERIOD      2     CURRENT TIME STEP:     210     ITERATIONS:      14

 -----------------------------------------------------------------------------------

   CUMULATIVE VOLUMES               L**3   RATES FOR THIS TIME STEP           L**3/T
   ------------------                      ------------------------

                                     IN                                         IN
                                     --                                         --
        PRECIPITATION =        1.6515D+07          PRECIPITATION =                  
           STREAMFLOW =                               STREAMFLOW =                  
     GW BOUNDARY FLOW =                         GW BOUNDARY FLOW =                  


                                    OUT                                        OUT
                                    ---                                        ---
   EVAPOTRANSPIRATION =        9056759.34     EVAPOTRANSPIRATION =         210387.62
           STREAMFLOW =        5711144.47             STREAMFLOW =          30410.50
     GW BOUNDARY FLOW =         136726.71       GW BOUNDARY FLOW =            650.99

   INFLOWS - OUTFLOWS =        1610802.36     INFLOWS - OUTFLOWS =        -241449.11
             --------                                   --------

 TOTAL STORAGE CHANGE =        1618066.41         STORAGE CHANGE =        -241463.80
       --------------                             --------------
         LAND SURFACE =        1047886.52           LAND SURFACE =        -108965.88
            SOIL ZONE =        1831603.07              SOIL ZONE =        -137880.86
     UNSATURATED ZONE =        -563019.50       UNSATURATED ZONE =           3776.13
       SATURATED ZONE =        -698403.67         SATURATED ZONE =           1606.80

 OVERALL BUDGET ERROR =          -7264.05           BUDGET ERROR =             14.69


  PERCENT DISCREPANCY =             -0.04    PERCENT DISCREPANCY =              0.01



1
 SUMMARY VOLUMETRIC BUDGET FOR GSFLOW 
 DATE: 05 05 1981              CUMULATIVE TIME STEP:     217
 MODFLOW STRESS PERIOD      2     CURRENT TIME STEP:     217     ITERATIONS:      14

 -----------------------------------------------------------------------------------

   CUMULATIVE VOLUMES               L**3   RATES FOR THIS TIME STEP           L**3/T
   ------------------                      ------------------------

                                     IN                                         IN
                                     --                                         --
        PRECIPITATION =        1.6515D+07          PRECIPITATION =                  
           STREAMFLOW =                               STREAMFLOW =                  
     GW BOUNDARY FLOW =                         GW BOUNDARY FLOW =                  


                                    OUT                                        OUT
                                    ---                                        ---
   EVAPOTRANSPIRATION =        9913892.38     EVAPOTRANSPIRATION =          47002.84
           STREAMFLOW =        5833970.28             STREAMFLOW =          11706.42
     GW BOUNDARY FLOW =         141275.54       GW BOUNDARY FLOW =            649.00

   INFLOWS - OUTFLOWS =         626294.68     INFLOWS - OUTFLOWS =         -59358.27
             --------                                   --------

 TOTAL STORAGE CHANGE =         633464.19         STORAGE CHANGE =         -59372.90
       --------------                             --------------
         LAND SURFACE =         583908.85           LAND SURFACE =         -19597.75
            SOIL ZONE =        1387126.95              SOIL ZONE =         -23365.10
     UNSATURATED ZONE =        -631217.02       UNSATURATED ZONE =         -14268.13
       SATURATED ZONE =        -706354.59         SATURATED ZONE =          -2141.92

 OVERALL BUDGET ERROR =          -7169.51           BUDGET ERROR =             14.63


  PERCENT DISCREPANCY =             -0.04    PERCENT DISCREPANCY =              0.02



1
 SUMMARY VOLUMETRIC BUDGET FOR GSFLOW 
 DATE: 05 12 1981              CUMULATIVE TIME STEP:     224
 MODFLOW STRESS PERIOD      2     CURRENT TIME STEP:     224     ITERATIONS:      12

 -----------------------------------------------------------------------------------

   CUMULATIVE VOLUMES               L**3   RATES FOR THIS TIME STEP           L**3/T
   ------------------                      ------------------------

                                     IN                                         IN
                                     --                                         --
        PRECIPITATION =        1.6515D+07          PRECIPITATION =                  
           STREAMFLOW =                               STREAMFLOW =                  
     GW BOUNDARY FLOW =                         GW BOUNDARY FLOW =                  


                                    OUT                                        OUT
                                    ---                                        ---
   EVAPOTRANSPIRATION =        1.0446D+07     EVAPOTRANSPIRATION =         101726.50
           STREAMFLOW =        5914991.61             STREAMFLOW =          12820.68
     GW BOUNDARY FLOW =         145815.53       GW BOUNDARY FLOW =            648.47

   INFLOWS - OUTFLOWS =           8953.21     INFLOWS - OUTFLOWS =        -115195.66
             --------                                   --------

 TOTAL STORAGE CHANGE =          16081.21         STORAGE CHANGE =        -115200.26
       --------------                             --------------
         LAND SURFACE =         364139.11           LAND SURFACE =         -39545.56
            SOIL ZONE =        1105518.82              SOIL ZONE =         -60901.82
     UNSATURATED ZONE =        -724447.75       UNSATURATED ZONE =         -10546.63
       SATURATED ZONE =        -729128.98         SATURATED ZONE =          -4206.24

 OVERALL BUDGET ERROR =          -7127.99           BUDGET ERROR =              4.60


  PERCENT DISCREPANCY =             -0.04    PERCENT DISCREPANCY =              0.00



1
 SUMMARY VOLUMETRIC BUDGET FOR GSFLOW 
 DATE: 05 19 1981              CUMULATIVE TIME STEP:     231
 MODFLOW STRESS PERIOD      2     CURRENT TIME STEP:     231     ITERATIONS:      19

 -----------------------------------------------------------------------------------

   CUMULATIVE VOLUMES               L**3   RATES FOR THIS TIME STEP           L**3/T
   ------------------                      ------------------------

                                     IN                                         IN
                                     --                                         --
        PRECIPITATION =        1.7837D+07          PRECIPITATION =         169045.43
           STREAMFLOW =                               STREAMFLOW =                  
     GW BOUNDARY FLOW =                         GW BOUNDARY FLOW =                  


                                    OUT                                        OUT
                                    ---                                        ---
   EVAPOTRANSPIRATION =        1.0792D+07     EVAPOTRANSPIRATION =          31098.89
           STREAMFLOW =        6069515.44             STREAMFLOW =          31801.52
     GW BOUNDARY FLOW =         150357.10       GW BOUNDARY FLOW =            649.98

   INFLOWS - OUTFLOWS =         825588.94     INFLOWS - OUTFLOWS =         105495.04
             --------                                   --------

 TOTAL STORAGE CHANGE =         832686.01         STORAGE CHANGE =         105491.29
       --------------                             --------------
         LAND SURFACE =         315733.69           LAND SURFACE =          16905.78
            SOIL ZONE =        2042174.86              SOIL ZONE =          86063.11
     UNSATURATED ZONE =        -762611.09       UNSATURATED ZONE =           6653.14
       SATURATED ZONE =        -762611.45         SATURATED ZONE =          -4130.75

 OVERALL BUDGET ERROR =          -7097.07           BUDGET ERROR =              3.75


  PERCENT DISCREPANCY =             -0.04    PERCENT DISCREPANCY =              0.00



1
 SUMMARY VOLUMETRIC BUDGET FOR GSFLOW 
 DATE: 05 26 1981              CUMULATIVE TIME STEP:     238
 MODFLOW STRESS PERIOD      2     CURRENT TIME STEP:     238     ITERATIONS:      14

 -----------------------------------------------------------------------------------

   CUMULATIVE VOLUMES               L**3   RATES FOR THIS TIME STEP           L**3/T
   ------------------                      ------------------------

                                     IN                                         IN
                                     --                                         --
        PRECIPITATION =        1.8252D+07          PRECIPITATION =         284303.67
           STREAMFLOW =                               STREAMFLOW =                  
     GW BOUNDARY FLOW =                         GW BOUNDARY FLOW =                  


                                    OUT                                        OUT
                                    ---                                        ---
   EVAPOTRANSPIRATION =        1.1581D+07     EVAPOTRANSPIRATION =         126247.52
           STREAMFLOW =        6207385.66             STREAMFLOW =          24132.08
     GW BOUNDARY FLOW =         154901.34       GW BOUNDARY FLOW =            648.96

   INFLOWS - OUTFLOWS =         308562.12     INFLOWS - OUTFLOWS =         133275.11
             --------                                   --------

 TOTAL STORAGE CHANGE =         315633.57         STORAGE CHANGE =         133275.70
       --------------                             --------------
         LAND SURFACE =         197572.66           LAND SURFACE =         -13397.86
            SOIL ZONE =        1711108.02              SOIL ZONE =         158547.11
     UNSATURATED ZONE =        -790056.71       UNSATURATED ZONE =          -6419.23
       SATURATED ZONE =        -802990.40         SATURATED ZONE =          -5454.33

 OVERALL BUDGET ERROR =          -7071.45           BUDGET ERROR =             -0.59


  PERCENT DISCREPANCY =             -0.04    PERCENT DISCREPANCY =             -0.00



1
 SUMMARY VOLUMETRIC BUDGET FOR GSFLOW 
 DATE: 06 02 1981              CUMULATIVE TIME STEP:     245
 MODFLOW STRESS PERIOD      2     CURRENT TIME STEP:     245     ITERATIONS:      17

 -----------------------------------------------------------------------------------

   CUMULATIVE VOLUMES               L**3   RATES FOR THIS TIME STEP           L**3/T
   ------------------                      ------------------------

                                     IN                                         IN
                                     --                                         --
        PRECIPITATION =        1.8318D+07          PRECIPITATION =          50869.96
           STREAMFLOW =                               STREAMFLOW =                  
     GW BOUNDARY FLOW =                         GW BOUNDARY FLOW =                  


                                    OUT                                        OUT
                                    ---                                        ---
   EVAPOTRANSPIRATION =        1.2409D+07     EVAPOTRANSPIRATION =          66645.25
           STREAMFLOW =        6293570.62             STREAMFLOW =           9120.92
     GW BOUNDARY FLOW =         159439.13       GW BOUNDARY FLOW =            647.71

   INFLOWS - OUTFLOWS =        -544214.06     INFLOWS - OUTFLOWS =         -25543.93
             --------                                   --------

 TOTAL STORAGE CHANGE =        -537124.43         STORAGE CHANGE =         -25539.21
       --------------                             --------------
         LAND SURFACE =         119474.96           LAND SURFACE =          25659.25
            SOIL ZONE =        1065576.21              SOIL ZONE =         -31104.90
     UNSATURATED ZONE =        -867952.70       UNSATURATED ZONE =         -12245.35
       SATURATED ZONE =        -854222.90         SATURATED ZONE =          -7848.21

 OVERALL BUDGET ERROR =          -7089.63           BUDGET ERROR =             -4.72


  PERCENT DISCREPANCY =             -0.04    PERCENT DISCREPANCY =             -0.01



1
 SUMMARY VOLUMETRIC BUDGET FOR GSFLOW 
 DATE: 06 09 1981              CUMULATIVE TIME STEP:     252
 MODFLOW STRESS PERIOD      2     CURRENT TIME STEP:     252     ITERATIONS:      15

 -----------------------------------------------------------------------------------

   CUMULATIVE VOLUMES               L**3   RATES FOR THIS TIME STEP           L**3/T
   ------------------                      ------------------------

                                     IN                                         IN
                                     --                                         --
        PRECIPITATION =        1.8318D+07          PRECIPITATION =                  
           STREAMFLOW =                               STREAMFLOW =                  
     GW BOUNDARY FLOW =                         GW BOUNDARY FLOW =                  


                                    OUT                                        OUT
                                    ---                                        ---
   EVAPOTRANSPIRATION =        1.2966D+07     EVAPOTRANSPIRATION =          55377.05
           STREAMFLOW =        6348436.61             STREAMFLOW =           7216.58
     GW BOUNDARY FLOW =         163970.55       GW BOUNDARY FLOW =            647.13

   INFLOWS - OUTFLOWS =       -1159971.87     INFLOWS - OUTFLOWS =         -63240.76
             --------                                   --------

 TOTAL STORAGE CHANGE =       -1152872.28         STORAGE CHANGE =         -63239.77
       --------------                             --------------
         LAND SURFACE =          39669.52           LAND SURFACE =          -4382.74
            SOIL ZONE =         671470.42              SOIL ZONE =         -38354.30
     UNSATURATED ZONE =        -951161.21       UNSATURATED ZONE =         -11942.88
       SATURATED ZONE =        -912851.02         SATURATED ZONE =          -8559.86

 OVERALL BUDGET ERROR =          -7099.59           BUDGET ERROR =             -0.99


  PERCENT DISCREPANCY =             -0.04    PERCENT DISCREPANCY =             -0.00



1
 SUMMARY VOLUMETRIC BUDGET FOR GSFLOW 
 DATE: 06 16 1981              CUMULATIVE TIME STEP:     259
 MODFLOW STRESS PERIOD      2     CURRENT TIME STEP:     259     ITERATIONS:      14

 -----------------------------------------------------------------------------------

   CUMULATIVE VOLUMES               L**3   RATES FOR THIS TIME STEP           L**3/T
   ------------------                      ------------------------

                                     IN                                         IN
                                     --                                         --
        PRECIPITATION =        1.8318D+07          PRECIPITATION =                  
           STREAMFLOW =                               STREAMFLOW =                  
     GW BOUNDARY FLOW =                         GW BOUNDARY FLOW =                  


                                    OUT                                        OUT
                                    ---                                        ---
   EVAPOTRANSPIRATION =        1.3177D+07     EVAPOTRANSPIRATION =          49129.71
           STREAMFLOW =        6396134.60             STREAMFLOW =           6666.94
     GW BOUNDARY FLOW =         168499.32       GW BOUNDARY FLOW =            646.87

   INFLOWS - OUTFLOWS =       -1423220.91     INFLOWS - OUTFLOWS =         -56443.51
             --------                                   --------

 TOTAL STORAGE CHANGE =       -1416102.75         STORAGE CHANGE =         -56439.87
       --------------                             --------------
         LAND SURFACE =          25589.67           LAND SURFACE =          -3042.77
            SOIL ZONE =         571926.26              SOIL ZONE =         -31737.59
     UNSATURATED ZONE =       -1038897.34       UNSATURATED ZONE =         -12731.16
       SATURATED ZONE =        -974721.34         SATURATED ZONE =          -8928.36

 OVERALL BUDGET ERROR =          -7118.17           BUDGET ERROR =             -3.64


  PERCENT DISCREPANCY =             -0.04    PERCENT DISCREPANCY =             -0.01



1
 SUMMARY VOLUMETRIC BUDGET FOR GSFLOW 
 DATE: 06 23 1981              CUMULATIVE TIME STEP:     266
 MODFLOW STRESS PERIOD      2     CURRENT TIME STEP:     266     ITERATIONS:      18

 -----------------------------------------------------------------------------------

   CUMULATIVE VOLUMES               L**3   RATES FOR THIS TIME STEP           L**3/T
   ------------------                      ------------------------

                                     IN                                         IN
                                     --                                         --
        PRECIPITATION =        1.8318D+07          PRECIPITATION =                  
           STREAMFLOW =                               STREAMFLOW =                  
     GW BOUNDARY FLOW =                         GW BOUNDARY FLOW =                  


                                    OUT                                        OUT
                                    ---                                        ---
   EVAPOTRANSPIRATION =        1.3519D+07     EVAPOTRANSPIRATION =          40291.38
           STREAMFLOW =        6440494.20             STREAMFLOW =           6087.30
     GW BOUNDARY FLOW =         173026.49       GW BOUNDARY FLOW =            646.64

   INFLOWS - OUTFLOWS =       -1813857.10     INFLOWS - OUTFLOWS =         -47025.32
             --------                                   --------

 TOTAL STORAGE CHANGE =       -1806743.72         STORAGE CHANGE =         -47025.92
       --------------                             --------------
         LAND SURFACE =           6959.28           LAND SURFACE =          -1578.51
            SOIL ZONE =         352835.50              SOIL ZONE =         -23674.38
     UNSATURATED ZONE =       -1126797.69       UNSATURATED ZONE =         -12275.87
       SATURATED ZONE =       -1039740.81         SATURATED ZONE =          -9497.15

 OVERALL BUDGET ERROR =          -7113.38           BUDGET ERROR =              0.60


  PERCENT DISCREPANCY =             -0.04    PERCENT DISCREPANCY =              0.00



1
 SUMMARY VOLUMETRIC BUDGET FOR GSFLOW 
 DATE: 06 30 1981              CUMULATIVE TIME STEP:     273
 MODFLOW STRESS PERIOD      2     CURRENT TIME STEP:     273     ITERATIONS:      14

 -----------------------------------------------------------------------------------

   CUMULATIVE VOLUMES               L**3   RATES FOR THIS TIME STEP           L**3/T
   ------------------                      ------------------------

                                     IN                                         IN
[...]
                                    ---                                        ---
   EVAPOTRANSPIRATION =        2.8382D+08     EVAPOTRANSPIRATION =          49225.81
           STREAMFLOW =        1.8483D+08             STREAMFLOW =           7347.60
     GW BOUNDARY FLOW =        3736513.32       GW BOUNDARY FLOW =            651.06

   INFLOWS - OUTFLOWS =       -7324924.22     INFLOWS - OUTFLOWS =         -57224.47
             --------                                   --------

 TOTAL STORAGE CHANGE =       -7244188.26         STORAGE CHANGE =         -57235.25
       --------------                             --------------
         LAND SURFACE =         214963.45           LAND SURFACE =         -10645.32
            SOIL ZONE =         329882.28              SOIL ZONE =         -25163.72
     UNSATURATED ZONE =        5399546.91       UNSATURATED ZONE =         -28154.54
       SATURATED ZONE =       -1.3189D+07         SATURATED ZONE =           6728.32

 OVERALL BUDGET ERROR =         -80735.96           BUDGET ERROR =             10.78


  PERCENT DISCREPANCY =             -0.02    PERCENT DISCREPANCY =              0.02



1
 SUMMARY VOLUMETRIC BUDGET FOR GSFLOW 
 DATE: 07 30 1996              CUMULATIVE TIME STEP:    5782
 MODFLOW STRESS PERIOD      2     CURRENT TIME STEP:    5782     ITERATIONS:      15

 -----------------------------------------------------------------------------------

   CUMULATIVE VOLUMES               L**3   RATES FOR THIS TIME STEP           L**3/T
   ------------------                      ------------------------

                                     IN                                         IN
                                     --                                         --
        PRECIPITATION =        4.6511D+08          PRECIPITATION =                  
           STREAMFLOW =                               STREAMFLOW =                  
     GW BOUNDARY FLOW =                         GW BOUNDARY FLOW =                  


                                    OUT                                        OUT
                                    ---                                        ---
   EVAPOTRANSPIRATION =        2.8413D+08     EVAPOTRANSPIRATION =          32620.72
           STREAMFLOW =        1.8488D+08             STREAMFLOW =           7047.06
     GW BOUNDARY FLOW =        3741068.97       GW BOUNDARY FLOW =            650.64

   INFLOWS - OUTFLOWS =       -7638553.40     INFLOWS - OUTFLOWS =         -40318.42
             --------                                   --------

 TOTAL STORAGE CHANGE =       -7557951.46         STORAGE CHANGE =         -40335.59
       --------------                             --------------
         LAND SURFACE =         152309.38           LAND SURFACE =          -7555.65
            SOIL ZONE =         229722.66              SOIL ZONE =         -11318.77
     UNSATURATED ZONE =        5201442.50       UNSATURATED ZONE =         -28006.61
       SATURATED ZONE =       -1.3141D+07         SATURATED ZONE =           6545.44

 OVERALL BUDGET ERROR =         -80601.93           BUDGET ERROR =             17.17


  PERCENT DISCREPANCY =             -0.02    PERCENT DISCREPANCY =              0.04



1
 SUMMARY VOLUMETRIC BUDGET FOR GSFLOW 
 DATE: 08 06 1996              CUMULATIVE TIME STEP:    5789
 MODFLOW STRESS PERIOD      2     CURRENT TIME STEP:    5789     ITERATIONS:      14

 -----------------------------------------------------------------------------------

   CUMULATIVE VOLUMES               L**3   RATES FOR THIS TIME STEP           L**3/T
   ------------------                      ------------------------

                                     IN                                         IN
                                     --                                         --
        PRECIPITATION =        4.6511D+08          PRECIPITATION =                  
           STREAMFLOW =                               STREAMFLOW =                  
     GW BOUNDARY FLOW =                         GW BOUNDARY FLOW =                  


                                    OUT                                        OUT
                                    ---                                        ---
   EVAPOTRANSPIRATION =        2.8431D+08     EVAPOTRANSPIRATION =          26112.82
           STREAMFLOW =        1.8493D+08             STREAMFLOW =           6766.17
     GW BOUNDARY FLOW =        3745623.13       GW BOUNDARY FLOW =            650.54

   INFLOWS - OUTFLOWS =       -7875594.84     INFLOWS - OUTFLOWS =         -33529.53
             --------                                   --------

 TOTAL STORAGE CHANGE =       -7795115.50         STORAGE CHANGE =         -33546.08
       --------------                             --------------
         LAND SURFACE =         111776.46           LAND SURFACE =          -5017.65
            SOIL ZONE =         181998.61              SOIL ZONE =          -7395.50
     UNSATURATED ZONE =        5012456.18       UNSATURATED ZONE =         -26280.19
       SATURATED ZONE =       -1.3101D+07         SATURATED ZONE =           5147.26

 OVERALL BUDGET ERROR =         -80479.34           BUDGET ERROR =             16.56


  PERCENT DISCREPANCY =             -0.02    PERCENT DISCREPANCY =              0.05



1
 SUMMARY VOLUMETRIC BUDGET FOR GSFLOW 
 DATE: 08 13 1996              CUMULATIVE TIME STEP:    5796
 MODFLOW STRESS PERIOD      2     CURRENT TIME STEP:    5796     ITERATIONS:      15

 -----------------------------------------------------------------------------------

   CUMULATIVE VOLUMES               L**3   RATES FOR THIS TIME STEP           L**3/T
   ------------------                      ------------------------

                                     IN                                         IN
                                     --                                         --
        PRECIPITATION =        4.6531D+08          PRECIPITATION =          54454.08
           STREAMFLOW =                               STREAMFLOW =                  
     GW BOUNDARY FLOW =                         GW BOUNDARY FLOW =                  


                                    OUT                                        OUT
                                    ---                                        ---
   EVAPOTRANSPIRATION =        2.8452D+08     EVAPOTRANSPIRATION =          36083.04
           STREAMFLOW =        1.8498D+08             STREAMFLOW =           7970.93
     GW BOUNDARY FLOW =        3750176.41       GW BOUNDARY FLOW =            650.48

   INFLOWS - OUTFLOWS =       -7940452.25     INFLOWS - OUTFLOWS =           9749.64
             --------                                   --------

 TOTAL STORAGE CHANGE =       -7860055.86         STORAGE CHANGE =           9735.18
       --------------                             --------------
         LAND SURFACE =         105220.94           LAND SURFACE =          -5194.35
            SOIL ZONE =         269956.74              SOIL ZONE =          35646.75
     UNSATURATED ZONE =        4832401.49       UNSATURATED ZONE =         -25078.96
       SATURATED ZONE =       -1.3068D+07         SATURATED ZONE =           4361.74

 OVERALL BUDGET ERROR =         -80396.39           BUDGET ERROR =             14.46


  PERCENT DISCREPANCY =             -0.02    PERCENT DISCREPANCY =              0.03



1
 SUMMARY VOLUMETRIC BUDGET FOR GSFLOW 
 DATE: 08 20 1996              CUMULATIVE TIME STEP:    5803
 MODFLOW STRESS PERIOD      2     CURRENT TIME STEP:    5803     ITERATIONS:      14

 -----------------------------------------------------------------------------------

   CUMULATIVE VOLUMES               L**3   RATES FOR THIS TIME STEP           L**3/T
   ------------------                      ------------------------

                                     IN                                         IN
                                     --                                         --
        PRECIPITATION =        4.6531D+08          PRECIPITATION =                  
           STREAMFLOW =                               STREAMFLOW =                  
     GW BOUNDARY FLOW =                         GW BOUNDARY FLOW =                  


                                    OUT                                        OUT
                                    ---                                        ---
   EVAPOTRANSPIRATION =        2.8474D+08     EVAPOTRANSPIRATION =          18242.50
           STREAMFLOW =        1.8503D+08             STREAMFLOW =           6519.61
     GW BOUNDARY FLOW =        3754728.10       GW BOUNDARY FLOW =            650.06

   INFLOWS - OUTFLOWS =       -8210565.55     INFLOWS - OUTFLOWS =         -25412.18
             --------                                   --------

 TOTAL STORAGE CHANGE =       -8130276.07         STORAGE CHANGE =         -25424.79
       --------------                             --------------
         LAND SURFACE =          44442.31           LAND SURFACE =          -2851.34
            SOIL ZONE =         205246.82              SOIL ZONE =          -2014.99
     UNSATURATED ZONE =        4661518.03       UNSATURATED ZONE =         -23898.73
       SATURATED ZONE =       -1.3041D+07         SATURATED ZONE =           3340.28

 OVERALL BUDGET ERROR =         -80289.49           BUDGET ERROR =             12.61


  PERCENT DISCREPANCY =             -0.02    PERCENT DISCREPANCY =              0.05



1
 SUMMARY VOLUMETRIC BUDGET FOR GSFLOW 
 DATE: 08 27 1996              CUMULATIVE TIME STEP:    5810
 MODFLOW STRESS PERIOD      2     CURRENT TIME STEP:    5810     ITERATIONS:      13

 -----------------------------------------------------------------------------------

   CUMULATIVE VOLUMES               L**3   RATES FOR THIS TIME STEP           L**3/T
   ------------------                      ------------------------

                                     IN                                         IN
                                     --                                         --
        PRECIPITATION =        4.6531D+08          PRECIPITATION =                  
           STREAMFLOW =                               STREAMFLOW =                  
     GW BOUNDARY FLOW =                         GW BOUNDARY FLOW =                  


                                    OUT                                        OUT
                                    ---                                        ---
   EVAPOTRANSPIRATION =        2.8490D+08     EVAPOTRANSPIRATION =          16928.81
           STREAMFLOW =        1.8507D+08             STREAMFLOW =           6354.75
     GW BOUNDARY FLOW =        3759276.99       GW BOUNDARY FLOW =            649.67

   INFLOWS - OUTFLOWS =       -8421480.75     INFLOWS - OUTFLOWS =         -23933.23
             --------                                   --------

 TOTAL STORAGE CHANGE =       -8341341.01         STORAGE CHANGE =         -23951.90
       --------------                             --------------
         LAND SURFACE =          21435.24           LAND SURFACE =          -2621.72
            SOIL ZONE =         160109.11              SOIL ZONE =          -1024.68
     UNSATURATED ZONE =        4500041.03       UNSATURATED ZONE =         -22552.74
       SATURATED ZONE =       -1.3023D+07         SATURATED ZONE =           2247.24

 OVERALL BUDGET ERROR =         -80139.74           BUDGET ERROR =             18.66


  PERCENT DISCREPANCY =             -0.02    PERCENT DISCREPANCY =              0.08



1
 SUMMARY VOLUMETRIC BUDGET FOR GSFLOW 
 DATE: 09 03 1996              CUMULATIVE TIME STEP:    5817
 MODFLOW STRESS PERIOD      2     CURRENT TIME STEP:    5817     ITERATIONS:      13

 -----------------------------------------------------------------------------------

   CUMULATIVE VOLUMES               L**3   RATES FOR THIS TIME STEP           L**3/T
   ------------------                      ------------------------

                                     IN                                         IN
                                     --                                         --
        PRECIPITATION =        4.6531D+08          PRECIPITATION =                  
           STREAMFLOW =                               STREAMFLOW =                  
     GW BOUNDARY FLOW =                         GW BOUNDARY FLOW =                  


                                    OUT                                        OUT
                                    ---                                        ---
   EVAPOTRANSPIRATION =        2.8502D+08     EVAPOTRANSPIRATION =          15452.00
           STREAMFLOW =        1.8512D+08             STREAMFLOW =           6240.90
     GW BOUNDARY FLOW =        3763823.07       GW BOUNDARY FLOW =            649.26

   INFLOWS - OUTFLOWS =       -8588874.21     INFLOWS - OUTFLOWS =         -22342.16
             --------                                   --------

 TOTAL STORAGE CHANGE =       -8508880.53         STORAGE CHANGE =         -22366.46
       --------------                             --------------
         LAND SURFACE =           7240.32           LAND SURFACE =          -1278.90
            SOIL ZONE =         147946.38              SOIL ZONE =          -1016.85
     UNSATURATED ZONE =        4346286.22       UNSATURATED ZONE =         -21749.15
       SATURATED ZONE =       -1.3010D+07         SATURATED ZONE =           1678.44

 OVERALL BUDGET ERROR =         -79993.68           BUDGET ERROR =             24.30


  PERCENT DISCREPANCY =             -0.02    PERCENT DISCREPANCY =              0.11



1
 SUMMARY VOLUMETRIC BUDGET FOR GSFLOW 
 DATE: 09 10 1996              CUMULATIVE TIME STEP:    5824
 MODFLOW STRESS PERIOD      2     CURRENT TIME STEP:    5824     ITERATIONS:      13

 -----------------------------------------------------------------------------------

   CUMULATIVE VOLUMES               L**3   RATES FOR THIS TIME STEP           L**3/T
   ------------------                      ------------------------

                                     IN                                         IN
                                     --                                         --
        PRECIPITATION =        4.6531D+08          PRECIPITATION =                  
           STREAMFLOW =                               STREAMFLOW =                  
     GW BOUNDARY FLOW =                         GW BOUNDARY FLOW =                  


                                    OUT                                        OUT
                                    ---                                        ---
   EVAPOTRANSPIRATION =        2.8511D+08     EVAPOTRANSPIRATION =          13776.94
           STREAMFLOW =        1.8516D+08             STREAMFLOW =           6133.04
     GW BOUNDARY FLOW =        3768366.35       GW BOUNDARY FLOW =            648.87

   INFLOWS - OUTFLOWS =       -8726060.84     INFLOWS - OUTFLOWS =         -20558.84
             --------                                   --------

 TOTAL STORAGE CHANGE =       -8646241.87         STORAGE CHANGE =         -20576.26
       --------------                             --------------
         LAND SURFACE =           2510.71           LAND SURFACE =           -704.62
            SOIL ZONE =         154894.19              SOIL ZONE =            -35.43
     UNSATURATED ZONE =        4197015.23       UNSATURATED ZONE =         -20934.45
       SATURATED ZONE =       -1.3001D+07         SATURATED ZONE =           1098.24

 OVERALL BUDGET ERROR =         -79818.97           BUDGET ERROR =             17.42


  PERCENT DISCREPANCY =             -0.02    PERCENT DISCREPANCY =              0.08



1
 SUMMARY VOLUMETRIC BUDGET FOR GSFLOW 
 DATE: 09 17 1996              CUMULATIVE TIME STEP:    5831
 MODFLOW STRESS PERIOD      2     CURRENT TIME STEP:    5831     ITERATIONS:      12

 -----------------------------------------------------------------------------------

   CUMULATIVE VOLUMES               L**3   RATES FOR THIS TIME STEP           L**3/T
   ------------------                      ------------------------

                                     IN                                         IN
                                     --                                         --
        PRECIPITATION =        4.6637D+08          PRECIPITATION =                  
           STREAMFLOW =                               STREAMFLOW =                  
     GW BOUNDARY FLOW =                         GW BOUNDARY FLOW =                  


                                    OUT                                        OUT
                                    ---                                        ---
   EVAPOTRANSPIRATION =        2.8529D+08     EVAPOTRANSPIRATION =          52774.70
           STREAMFLOW =        1.8523D+08             STREAMFLOW =          10299.66
     GW BOUNDARY FLOW =        3772908.83       GW BOUNDARY FLOW =            649.26

   INFLOWS - OUTFLOWS =       -7918010.56     INFLOWS - OUTFLOWS =         -63723.63
             --------                                   --------

 TOTAL STORAGE CHANGE =       -7838389.51         STORAGE CHANGE =         -63741.30
       --------------                             --------------
         LAND SURFACE =            882.14           LAND SURFACE =         -33826.70
            SOIL ZONE =        1100389.72              SOIL ZONE =         -10295.11
     UNSATURATED ZONE =        4052537.39       UNSATURATED ZONE =         -20283.64
       SATURATED ZONE =       -1.2992D+07         SATURATED ZONE =            664.15

 OVERALL BUDGET ERROR =         -79621.06           BUDGET ERROR =             17.68


  PERCENT DISCREPANCY =             -0.02    PERCENT DISCREPANCY =              0.03



1
 SUMMARY VOLUMETRIC BUDGET FOR GSFLOW 
 DATE: 09 24 1996              CUMULATIVE TIME STEP:    5838
 MODFLOW STRESS PERIOD      2     CURRENT TIME STEP:    5838     ITERATIONS:      12

 -----------------------------------------------------------------------------------

   CUMULATIVE VOLUMES               L**3   RATES FOR THIS TIME STEP           L**3/T
   ------------------                      ------------------------

                                     IN                                         IN
                                     --                                         --
        PRECIPITATION =        4.6637D+08          PRECIPITATION =                  
           STREAMFLOW =                               STREAMFLOW =                  
     GW BOUNDARY FLOW =                         GW BOUNDARY FLOW =                  


                                    OUT                                        OUT
                                    ---                                        ---
   EVAPOTRANSPIRATION =        2.8575D+08     EVAPOTRANSPIRATION =          54621.78
           STREAMFLOW =        1.8528D+08             STREAMFLOW =           6710.09
     GW BOUNDARY FLOW =        3777449.74       GW BOUNDARY FLOW =            648.36

   INFLOWS - OUTFLOWS =       -8438690.05     INFLOWS - OUTFLOWS =         -61980.23
             --------                                   --------

 TOTAL STORAGE CHANGE =       -8359267.13         STORAGE CHANGE =         -62009.53
       --------------                             --------------
         LAND SURFACE =                             LAND SURFACE =                  
            SOIL ZONE =         717055.99              SOIL ZONE =         -42566.97
     UNSATURATED ZONE =        3914755.12       UNSATURATED ZONE =         -19309.94
       SATURATED ZONE =       -1.2991D+07         SATURATED ZONE =           -132.62

 OVERALL BUDGET ERROR =         -79422.91           BUDGET ERROR =             29.30


  PERCENT DISCREPANCY =             -0.02    PERCENT DISCREPANCY =              0.05



