==========================================================================
Command line: 
..\..\bin\gsflow.exe  .\gsflow_modflow_low.control

number of command line words: 2

Executable: ..\..\bin\gsflow.exe

==========================================================================
Control File: .\gsflow_modflow_low.control
==========================================================================

                            MODFLOW-NWT-SWR1 
  U.S. GEOLOGICAL SURVEY MODULAR FINITE-DIFFERENCE GROUNDWATER-FLOW MODEL
                         WITH NEWTON FORMULATION
                         Version 1.3.0 06/01/2022
              BASED ON MODFLOW-2005 Version 1.12.0 02/03/2017
                      SWR1 Version 1.04.0 09/15/2016

 Run start date and time (yyyy/mm/dd hh:mm:ss): 2023/12/12 11:01:03

GSFLOW MODFLOW main             gsflow_modflow      2022-10-20
==============================================================
MODFLOW Packages
==============================================================
UZF-NWT Package                 gwf2uzf1_NWT        2022-10-18
SFR-NWT Package                 gwf2sfr7_NWT        2022-10-18
==============================================================

  

Steady state simulation successful, used 7 iterations
  

 Run end date and time (yyyy/mm/dd hh:mm:ss): 2023/12/12 11:01:06
 Elapsed run time: 2.729 Seconds

 Normal termination of simulation

