

                          U.S. Geological Survey
        Coupled Groundwater and Surface-water FLOW model (GSFLOW)
                         Version 2.1.0 10/31/2019

    An integration of the Precipitation-Runoff Modeling System (PRMS)
    and the Modular Groundwater Model (MODFLOW-NWT and MODFLOW-2005)


               Precipitation-Runoff Modeling System (PRMS)
                       Version 5.1.0 12/05/2019

        Process            Available Modules
--------------------------------------------------------------------
  Basin Definition: basin
    Cascading Flow: cascade
  Time Series Data: obs, water_use_read, dynamic_param_read
   Potet Solar Rad: soltab
  Temperature Dist: temp_1sta, temp_laps, temp_dist2, climate_hru
       Precip Dist: precip_1sta, precip_laps, precip_dist2,
                    climate_hru
Temp & Precip Dist: xyz_dist, ide_dist
    Solar Rad Dist: ccsolrad, ddsolrad, climate_hru
Transpiration Dist: transp_tindex, climate_hru, transp_frost
      Potential ET: potet_hamon, potet_jh, potet_pan, climate_hru,
                    potet_hs, potet_pt, potet_pm, potet_pm_sta
      Interception: intcp
     Snow Dynamics: snowcomp
    Surface Runoff: srunoff_smidx, srunoff_carea
         Soil Zone: soilzone
       Groundwater: gwflow
Streamflow Routing: strmflow, strmflow_in_out, muskingum,
                    muskingum_lake, muskingum_mann
Stream Temperature: stream_temp
    Output Summary: basin_sum, subbasin, map_results, prms_summary,
                    nhru_summary, nsub_summary, water_balance
                    basin_summary, nsegment_summary
     Preprocessing: write_climate_hru, frost_date
--------------------------------------------------------------------


    Active modules listed in the order in which they are called

        Process                   Module                Version Date
====================================================================
GSFLOW Computation Order       gsflow_prms                2019-12-02
Basin Definition               basin                      2019-11-14
Cascading Flow                 cascade                    2019-09-25
Common States and Fluxes       climateflow                2019-10-31
Potential Solar Radiation      soltab                     2016-09-09
PRMS Set Time Variables        prms_time                  2015-03-31
Time Series Data               obs                        2019-10-23
Temperature Distribution       climate_hru                2019-10-23
Precipitation Distribution     climate_hru                2019-10-23
Solar Radiation Distribution   climate_hru                2019-10-23
Potential Evapotranspiration   climate_hru                2019-10-23
Transpiration Distribution     transp_tindex              2015-01-06
Canopy Interception            intcp                      2019-05-30
Snow Dynamics                  snowcomp                   2019-11-27
Surface Runoff                 srunoff_smidx              2019-11-15
Soil Zone Computations         soilzone                   2019-12-05
Groundwater                    gwflow                     2019-04-04
Streamflow Routing             strmflow                   2014-12-02
Summary                        basin_sum                  2017-10-21
Output Summary                 subbasin                   2019-12-02
Nhru Output Summary            nhru_summary               2019-10-25
====================================================================

Using Control File: .\prms_climate_hru.control

Using Parameter File: ..\input\prms\prms_climate_hru.params

Writing PRMS Water Budget File: ..\output\prms\sagehen_prms_only_cbh.out

Simulation time period: 1980/10/01 - 1996/09/30

====================================================================

Execution elapsed time    0 minutes  1.09 seconds

