                                  MODFLOW-NWT-SWR1 
      U.S. GEOLOGICAL SURVEY MODULAR FINITE-DIFFERENCE GROUNDWATER-FLOW MODEL
                            VERSION 1.2.0 03/01/2020
                    BASED ON MODFLOW-2005 VERSION 1.12.00 02/03/2017

 LIST FILE: .\output\UZFtest2.lst
                         UNIT    9

 OPENING .\input\UZFtest2.ba6
 FILE TYPE:BAS6   UNIT   75   STATUS:OLD    
 FORMAT:FORMATTED              ACCESS:SEQUENTIAL          

 OPENING .\input\UZFtest2.upw
 FILE TYPE:UPW   UNIT    7   STATUS:OLD    
 FORMAT:FORMATTED              ACCESS:SEQUENTIAL          

 OPENING .\input\UZFtest2.dis
 FILE TYPE:DIS   UNIT    8   STATUS:OLD    
 FORMAT:FORMATTED              ACCESS:SEQUENTIAL          

 OPENING .\input\UZFtest2.nwt
 FILE TYPE:NWT   UNIT   13   STATUS:OLD    
 FORMAT:FORMATTED              ACCESS:SEQUENTIAL          

 OPENING .\input\UZFtest2.oc
 FILE TYPE:OC   UNIT   14   STATUS:OLD    
 FORMAT:FORMATTED              ACCESS:SEQUENTIAL          

 OPENING .\input\UZFtest2.sfr
 FILE TYPE:SFR   UNIT   15   STATUS:OLD    
 FORMAT:FORMATTED              ACCESS:SEQUENTIAL          

 OPENING .\input\UZFtest2.wel
 FILE TYPE:WEL   UNIT   16   STATUS:OLD    
 FORMAT:FORMATTED              ACCESS:SEQUENTIAL          

 OPENING .\input\UZFtest2.ghb
 FILE TYPE:GHB   UNIT   17   STATUS:OLD    
 FORMAT:FORMATTED              ACCESS:SEQUENTIAL          

 OPENING .\input\UZFtest2.uzf
 FILE TYPE:UZF   UNIT   19   STATUS:OLD    
 FORMAT:FORMATTED              ACCESS:SEQUENTIAL          

 OPENING .\input\UZFtest2.gag
 FILE TYPE:GAGE   UNIT   32   STATUS:OLD    
 FORMAT:FORMATTED              ACCESS:SEQUENTIAL          

 OPENING .\output\UZFtest2hd.out
 FILE TYPE:DATA   UNIT   58   STATUS:UNKNOWN
 FORMAT:FORMATTED              ACCESS:SEQUENTIAL          

 OPENING .\output\UZFtest2.uzfot
 FILE TYPE:DATA(BINARY)   UNIT   61   STATUS:UNKNOWN
 FORMAT:UNFORMATTED            ACCESS:STREAM              

 OPENING .\output\UZFtest2.uzf1
 FILE TYPE:DATA   UNIT   65   STATUS:UNKNOWN
 FORMAT:FORMATTED              ACCESS:SEQUENTIAL          

 OPENING .\output\UZFtest2.uzf2
 FILE TYPE:DATA   UNIT   66   STATUS:UNKNOWN
 FORMAT:FORMATTED              ACCESS:SEQUENTIAL          

 OPENING .\output\UZFtest2.uzf3
 FILE TYPE:DATA   UNIT   67   STATUS:UNKNOWN
 FORMAT:FORMATTED              ACCESS:SEQUENTIAL          

 OPENING .\output\UZFtest2.uzf4
 FILE TYPE:DATA   UNIT   68   STATUS:UNKNOWN
 FORMAT:FORMATTED              ACCESS:SEQUENTIAL          

 OPENING .\output\UZFtest2.flw
 FILE TYPE:DATA   UNIT   81   STATUS:UNKNOWN
 FORMAT:FORMATTED              ACCESS:SEQUENTIAL          

 OPENING .\output\UZFtest2.sg1
 FILE TYPE:DATA   UNIT   83   STATUS:UNKNOWN
 FORMAT:FORMATTED              ACCESS:SEQUENTIAL          

 OPENING .\output\UZFtest2.sg2
 FILE TYPE:DATA   UNIT   84   STATUS:UNKNOWN
 FORMAT:FORMATTED              ACCESS:SEQUENTIAL          

 OPENING .\output\UZFtest2.sg3
 FILE TYPE:DATA   UNIT   85   STATUS:UNKNOWN
 FORMAT:FORMATTED              ACCESS:SEQUENTIAL          

 OPENING .\output\UZFtest2.sg4
 FILE TYPE:DATA   UNIT   86   STATUS:UNKNOWN
 FORMAT:FORMATTED              ACCESS:SEQUENTIAL          

 OPENING .\output\UZFtest2.sg5
 FILE TYPE:DATA   UNIT   87   STATUS:UNKNOWN
 FORMAT:FORMATTED              ACCESS:SEQUENTIAL          

 OPENING .\output\UZFtest2.sg6
 FILE TYPE:DATA   UNIT   88   STATUS:UNKNOWN
 FORMAT:FORMATTED              ACCESS:SEQUENTIAL          

 OPENING .\output\UZFtest2.sg7
 FILE TYPE:DATA   UNIT   89   STATUS:UNKNOWN
 FORMAT:FORMATTED              ACCESS:SEQUENTIAL          

 OPENING .\output\UZFtest2.sg8
 FILE TYPE:DATA   UNIT   90   STATUS:UNKNOWN
 FORMAT:FORMATTED              ACCESS:SEQUENTIAL          

 OPENING .\output\UZFtest2dv.sg9
 FILE TYPE:DATA   UNIT   91   STATUS:UNKNOWN
 FORMAT:FORMATTED              ACCESS:SEQUENTIAL          

 BAS -- BASIC PACKAGE, VERSION 1.1.4, 4/01/2018 INPUT READ FROM UNIT   75
 
 MODFLOW was compiled using mixed precision
 Precision of REAL variables:           6
 Precision of DOUBLE PRECISION variables:          15

 DISCRETIZATION INPUT DATA READ FROM UNIT    8
 #Test problem 2, 2 layer version -- Discretization input
 #Example problem using the UZF1 Package
    2 LAYERS        15 ROWS        10 COLUMNS
   12 STRESS PERIOD(S) IN SIMULATION
 MODEL TIME UNIT IS SECONDS
 MODEL LENGTH UNIT IS FEET
  Confining bed flag for each layer:
   0   0

                     DELR =   5000.00    

                     DELC =   5000.00    



           TOP ELEVATION OF LAYER 1
 READING ON UNIT    8 WITH FORMAT: (10F7.0)            

            1           2           3           4           5           6           7           8           9          10
 ........................................................................................................................
   1    1105.       1105.       0.000       0.000       0.000       0.000       0.000       0.000       0.000       0.000    
   2    1105.       1095.       1105.       0.000       0.000       1100.       1100.       1110.       0.000       0.000    
   3    0.000       1100.       1085.       1080.       1078.       1076.       1073.       1090.       0.000       0.000    
   4    1110.       1100.       1090.       1085.       1076.       1080.       1080.       1070.       1100.       0.000    
   5    1110.       1100.       1085.       1080.       1078.       1074.       1077.       1066.       1075.       1080.    
   6    1105.       1095.       1080.       1077.       1073.       1069.       1070.       1063.       1085.       1095.    
   7    1105.       1090.       1075.       1072.       1070.       1065.       1065.       1069.       1090.       0.000    
   8    0.000       1080.       1070.       1068.       1063.       1060.       1063.       1067.       1090.       0.000    
   9    0.000       1075.       1065.       1062.       1058.       1052.       1055.       1065.       1090.       0.000    
  10    0.000       1070.       1060.       1055.       1046.       1046.       1044.       1060.       1088.       1100.    
  11    0.000       1055.       1050.       1045.       1041.       1042.       1040.       1050.       1075.       0.000    
  12    1027.       1028.       1028.       1032.       1032.       1033.       1032.       1040.       1060.       0.000    
  13    997.0       1004.       1008.       1014.       1020.       1027.       1032.       1038.       1050.       0.000    
  14    0.000       1030.       1040.       1045.       1050.       1050.       1050.       1050.       1044.       0.000    
  15    0.000       0.000       1080.       1080.       1080.       1080.       0.000       0.000       0.000       0.000    



             MODEL LAYER BOTTOM EL. FOR LAYER   1
 READING ON UNIT    8 WITH FORMAT: (FREE)              

            1           2           3           4           5           6           7           8           9          10
 ........................................................................................................................
   1    1055.       1055.      -50.00      -50.00      -50.00      -50.00      -50.00      -50.00      -50.00      -50.00    
   2    1055.       1045.       1055.      -50.00      -50.00       1050.       1050.       1060.      -50.00      -50.00    
   3   -50.00       1050.       1035.       1030.       1028.       1026.       1023.       1040.      -50.00      -50.00    
   4    1060.       1050.       1040.       1035.       1026.       1030.       1030.       1020.       1050.      -50.00    
   5    1060.       1050.       1035.       1030.       1028.       1024.       1027.       1016.       1025.       1030.    
   6    1055.       1045.       1030.       1027.       1023.       1019.       1020.       1013.       1035.       1045.    
   7    1055.       1040.       1025.       1022.       1020.       1015.       1015.       1019.       1040.      -50.00    
   8   -50.00       1030.       1020.       1018.       1013.       1010.       1013.       1017.       1040.      -50.00    
   9   -50.00       1025.       1015.       1012.       1008.       1002.       1005.       1015.       1040.      -50.00    
  10   -50.00       1020.       1010.       1005.       996.0       996.0       994.0       1010.       1038.       1050.    
  11   -50.00       1005.       1000.       995.0       991.0       992.0       990.0       1000.       1025.      -50.00    
  12    977.0       978.0       978.0       982.0       982.0       983.0       982.0       990.0       1010.      -50.00    
  13    947.0       954.0       958.0       964.0       970.0       977.0       982.0       988.0       1000.      -50.00    
  14   -50.00       980.0       990.0       995.0       1000.       1000.       1000.       1000.       994.0      -50.00    
  15   -50.00      -50.00       1030.       1030.       1030.       1030.      -50.00      -50.00      -50.00      -50.00    



             MODEL LAYER BOTTOM EL. FOR LAYER   2
 READING ON UNIT    8 WITH FORMAT: (10F7.0)            

            1           2           3           4           5           6           7           8           9          10
 ........................................................................................................................
   1    1000.       1000.       0.000       0.000       0.000       0.000       0.000       0.000       0.000       0.000    
   2    1000.       900.0       900.0       0.000       0.000       950.0       950.0       950.0       0.000       0.000    
   3    0.000       850.0       670.0       680.0       680.0       770.0       770.0       890.0       0.000       0.000    
   4    925.0       850.0       650.0       650.0       650.0       680.0       740.0       850.0       950.0       0.000    
   5    925.0       800.0       650.0       600.0       600.0       600.0       650.0       720.0       850.0       950.0    
   6    925.0       800.0       650.0       600.0       550.0       600.0       650.0       720.0       850.0       970.0    
   7    925.0       800.0       650.0       600.0       550.0       600.0       650.0       720.0       950.0       0.000    
   8    0.000       850.0       700.0       650.0       570.0       600.0       700.0       850.0       950.0       0.000    
   9    0.000       850.0       700.0       650.0       540.0       580.0       700.0       850.0       950.0       0.000    
  10    0.000       850.0       700.0       630.0       530.0       580.0       650.0       800.0       900.0       950.0    
  11    0.000       850.0       700.0       620.0       580.0       620.0       700.0       800.0       900.0       0.000    
  12    900.0       830.0       710.0       640.0       600.0       650.0       700.0       800.0       900.0       0.000    
  13    900.0       810.0       750.0       700.0       650.0       700.0       750.0       800.0       900.0       0.000    
  14    0.000       950.0       850.0       850.0       850.0       850.0       850.0       850.0       850.0       0.000    
  15    0.000       0.000       950.0       950.0       950.0       950.0       0.000       0.000       0.000       0.000    


 STRESS PERIOD     LENGTH       TIME STEPS     MULTIPLIER FOR DELT    SS FLAG
 ----------------------------------------------------------------------------
        1         2628000.          1                    1.000         SS
        2         2628000.         15                    1.100         TR
        3         2628000.         15                    1.100         TR
        4         2628000.         15                    1.100         TR
        5         2628000.         15                    1.100         TR
        6         2628000.         15                    1.100         TR
        7         2628000.         15                    1.100         TR
        8         2628000.         15                    1.100         TR
        9         2628000.         15                    1.100         TR
       10         2628000.         15                    1.100         TR
       11         2628000.         15                    1.100         TR
       12         2628000.         15                    1.100         TR

 COMBINED STEADY-STATE AND TRANSIENT SIMULATION



 
 #Test Simulation 2-- Example problem using the UZF1 Package                     
 #Modified from example Problem 1 of SFR1 documentation report                   
 THE FREE FORMAT OPTION HAS BEEN SELECTED



                     BOUNDARY ARRAY FOR LAYER   1
 READING ON UNIT   75 WITH FORMAT: (20I4)              

                1           2           3           4           5           6           7           8           9          10
 ............................................................................................................................
   1            1           1           0           0           0           0           0           0           0           0
   2            1           1           1           0           0           1           1           1           0           0
   3            0           1           1           1           1           1           1           1           0           0
   4            1           1           1           1           1           1           1           1           1           0
   5            1           1           1           1           1           1           1           1           1           1
   6            1           1           1           1           1           1           1           1           1           1
   7            1           1           1           1           1           1           1           1           1           0
   8            0           1           1           1           1           1           1           1           1           0
   9            0           1           1           1           1           1           1           1           1           0
  10            0           1           1           1           1           1           1           1           1           1
  11            0           1           1           1           1           1           1           1           1           0
  12            1           1           1           1           1           1           1           1           1           0
  13            1           1           1           1           1           1           1           1           1           0
  14            0           1           1           1           1           1           1           1           1           0
  15            0           0           1           1           1           1           0           0           0           0



                     BOUNDARY ARRAY FOR LAYER   2
 READING ON UNIT   75 WITH FORMAT: (20I4)              

                1           2           3           4           5           6           7           8           9          10
 ............................................................................................................................
   1            1           1           0           0           0           0           0           0           0           0
   2            1           1           1           0           0           1           1           1           0           0
   3            0           1           1           1           1           1           1           1           0           0
   4            1           1           1           1           1           1           1           1           1           0
   5            1           1           1           1           1           1           1           1           1           1
   6            1           1           1           1           1           1           1           1           1           1
   7            1           1           1           1           1           1           1           1           1           0
   8            0           1           1           1           1           1           1           1           1           0
   9            0           1           1           1           1           1           1           1           1           0
  10            0           1           1           1           1           1           1           1           1           1
  11            0           1           1           1           1           1           1           1           1           0
  12            1           1           1           1           1           1           1           1           1           0
  13            1           1           1           1           1           1           1           1           1           0
  14            0           1           1           1           1           1           1           1           1           0
  15            0           0           1           1           1           1           0           0           0           0

 AQUIFER HEAD WILL BE SET TO   6999.0     AT ALL NO-FLOW NODES (IBOUND=0).



                       INITIAL HEAD FOR LAYER   1
 READING ON UNIT   75 WITH FORMAT: (10F8.0)            

            1           2           3           4           5           6           7           8           9          10
 ........................................................................................................................
   1    1093.       1089.       6999.       6999.       6999.       6999.       6999.       6999.       6999.       6999.    
   2    1090.       1087.       1081.       6999.       6999.       1072.       1071.       1071.       6999.       6999.    
   3    6999.       1079.       1078.       1074.       1072.       1071.       1069.       1068.       6999.       6999.    
   4    1069.       1071.       1070.       1067.       1065.       1064.       1064.       1066.       1066.       6999.    
   5    1065.       1064.       1063.       1062.       1061.       1061.       1060.       1062.       1066.       1068.    
   6    1060.       1058.       1057.       1056.       1056.       1057.       1057.       1059.       1062.       1066.    
   7    1056.       1053.       1052.       1051.       1051.       1052.       1053.       1055.       1056.       6999.    
   8    6999.       1046.       1046.       1046.       1046.       1046.       1048.       1050.       1050.       6999.    
   9    6999.       1039.       1039.       1039.       1040.       1041.       1042.       1043.       1044.       6999.    
  10    6999.       1031.       1032.       1033.       1034.       1035.       1037.       1038.       1039.       1042.    
  11    6999.       1021.       1023.       1027.       1029.       1030.       1032.       1034.       1036.       6999.    
  12    1001.       1009.       1015.       1020.       1023.       1026.       1029.       1030.       1034.       6999.    
  13    994.5      1000.0       1007.       1013.       1019.       1024.       1029.       1034.       1036.       6999.    
  14    6999.       1004.       1009.       1014.       1019.       1024.       1029.       1035.       1039.       6999.    
  15    6999.       6999.       1012.       1015.       1019.       1022.       6999.       6999.       6999.       6999.    



                       INITIAL HEAD FOR LAYER   2
 READING ON UNIT   75 WITH FORMAT: (10F8.0)            

            1           2           3           4           5           6           7           8           9          10
 ........................................................................................................................
   1    1093.       1089.       6999.       6999.       6999.       6999.       6999.       6999.       6999.       6999.    
   2    1090.       1087.       1081.       6999.       6999.       1072.       1071.       1071.       6999.       6999.    
   3    6999.       1079.       1078.       1074.       1072.       1071.       1069.       1068.       6999.       6999.    
   4    1069.       1071.       1070.       1067.       1065.       1064.       1064.       1066.       1066.       6999.    
   5    1065.       1064.       1063.       1062.       1061.       1061.       1060.       1062.       1066.       1068.    
   6    1060.       1058.       1057.       1056.       1056.       1057.       1057.       1059.       1062.       1066.    
   7    1056.       1053.       1052.       1051.       1051.       1052.       1053.       1055.       1056.       6999.    
   8    6999.       1046.       1046.       1046.       1046.       1046.       1048.       1050.       1050.       6999.    
   9    6999.       1039.       1039.       1039.       1040.       1041.       1042.       1043.       1044.       6999.    
  10    6999.       1031.       1032.       1033.       1034.       1035.       1037.       1038.       1039.       1042.    
  11    6999.       1021.       1023.       1027.       1029.       1030.       1032.       1034.       1036.       6999.    
  12    1001.       1009.       1015.       1020.       1023.       1026.       1029.       1030.       1034.       6999.    
  13    994.5      1000.0       1007.       1013.       1019.       1024.       1029.       1034.       1036.       6999.    
  14    6999.       1004.       1009.       1014.       1019.       1024.       1029.       1035.       1039.       6999.    
  15    6999.       6999.       1012.       1015.       1019.       1022.       6999.       6999.       6999.       6999.    

 OUTPUT CONTROL IS SPECIFIED ONLY AT TIME STEPS FOR WHICH OUTPUT IS DESIRED
 HEADS WILL BE SAVED WITH FORMAT: (10F10.3)           
 SAVED HEADS WILL BE LABELED
 HEAD PRINT FORMAT CODE IS   4    DRAWDOWN PRINT FORMAT CODE IS   0
 HEADS WILL BE SAVED ON UNIT   58    DRAWDOWNS WILL BE SAVED ON UNIT    0
 # MODFLOW-NWT

 NWT1 -- Newton Solver, VERSION 1.1.4, 4/01/2018
         INPUT READ FROM UNIT 13

 SPECIFIED OPTION:
 SOLVER INPUT VALUES ARE SPECIFIED BY USER
 ***XMD linear solver will be used***
 
   CONVERGENCE CRITERION OF   0.100000E-03 FOR HEAD SOLUTION
   AND A TOLERANCE OF   0.100000E+01 FOR FLOW SOLUTION AND 
   A MAXIMUM OF   500 OUTER ITERATIONS. 


   D-B-D REDUCTION FACTOR OF    0.960000E+00 AND 
   A D-B-D INCREASE FACTOR OF    0.100000E+00 AND 
   A D-B-D RELAXATION OF    0.000000E+00 AND 
   A MOMENTUM FACTOR OF    0.100000E+00 .


 ***BACKTRACKING IS INACTIVE***
 XMD -- LINEAR SOLUTION BY XMD PACKAGE VERSION 1.30
     BY MOTOMU IBARAKI, OHIO STATE UNIVERSITY, COLOMBUS, OH
                 INPUT READ FROM UNIT 13
 ACCELERATION METHOD                    (IACL) =         1
 NODE ORDERING FLAG                   (NORDER) =         1
 LEVEL OF FILL                         (LEVEL) =         5
 MAXIMUM NUMBER OF ORTHOGONALIZATIONS  (NORTH) =         7
 INDEX FOR USING REDUCED SYSTEM      (IREDSYS) =         1
 RESID. REDUCTION CONVERGE CRITERION  (RRCTOL) =  0.000000E+00
 INDEX FOR USING DROP TOLERANCE     (IDROPTOL) =         0
 DROP TOLERANCE VALUE                  (EPSRN) =  0.500000E-02
 CONVERGENCE CRITERIA OF           (HCLOSEXMD) =  0.100000E-02
 MAX. NUMBER OF LINEAR ITERATIONS  (MXITERXMD) =        50


 UPW1 -- UPSTREAM WEIGHTING FLOW PACKAGE, VERSION 1.1.4, 4/01/2018
         INPUT READ FROM UNIT  7

 #Layer-Property Flow Package input for test simulation 2
 No named parameters

   LAYER FLAGS:
 LAYER       LAYTYP          LAYAVG    CHANI           LAYVKA           LAYWET
 ---------------------------------------------------------------------------
    1             1             0     1.000E+00             0             0
    2             1             0     1.000E+00             0             0

   INTERPRETATION OF LAYER FLAGS:
                        INTERBLOCK     HORIZONTAL    DATA IN
         LAYER TYPE   TRANSMISSIVITY   ANISOTROPY   ARRAY VKA   WETTABILITY
 LAYER   (LAYTYP)        (LAYAVG)      (CHANI)     (LAYVKA)       (LAYWET)
 ---------------------------------------------------------------------------
    1   CONVERTIBLE      HARMONIC     1.000E+00    VERTICAL K  NON-WETTABLE
    2   CONVERTIBLE      HARMONIC     1.000E+00    VERTICAL K  NON-WETTABLE



              HYD. COND. ALONG ROWS FOR LAYER   1
 READING ON UNIT    7 WITH FORMAT: (10F5.0)            

            1           2           3           4           5           6           7           8           9          10
 ........................................................................................................................
   1   2.0000E-03  2.0000E-03   0.000       0.000       0.000       0.000       0.000       0.000       0.000       0.000    
   2   4.0000E-04  2.0000E-03  2.0000E-03   0.000       0.000      4.0000E-04  4.0000E-04  4.0000E-04   0.000       0.000    
   3    0.000      4.0000E-04  2.0000E-03  2.0000E-03  4.0000E-04  4.0000E-04  4.0000E-04  4.0000E-04   0.000       0.000    
   4   4.0000E-04  4.0000E-04  4.0000E-04  2.0000E-03  2.0000E-03  2.0000E-03  4.0000E-04  4.0000E-04  4.0000E-04   0.000    
   5   4.0000E-04  4.0000E-04  4.0000E-04  2.0000E-03  2.0000E-03  2.0000E-03  2.0000E-03  2.0000E-03  2.0000E-03  2.0000E-03
   6   4.0000E-04  4.0000E-04  4.0000E-04  2.0000E-03  2.0000E-03  2.0000E-03  2.0000E-03  2.0000E-03  4.0000E-04  4.0000E-04
   7   4.0000E-04  4.0000E-04  4.0000E-04  2.0000E-03  2.0000E-03  2.0000E-03  2.0000E-03  2.0000E-03  4.0000E-04   0.000    
   8    0.000      4.0000E-04  4.0000E-04  2.0000E-03  2.0000E-03  2.0000E-03  2.0000E-03  4.0000E-04  4.0000E-04   0.000    
   9    0.000      4.0000E-04  4.0000E-04  2.0000E-03  2.0000E-03  2.0000E-03  2.0000E-03  4.0000E-04  4.0000E-04   0.000    
  10    0.000      4.0000E-04  4.0000E-04  2.0000E-03  2.0000E-03  2.0000E-03  2.0000E-03  4.0000E-04  4.0000E-04  4.0000E-04
  11    0.000      4.0000E-04  4.0000E-04  2.0000E-03  2.0000E-03  2.0000E-03  2.0000E-03  4.0000E-04  4.0000E-04   0.000    
  12   4.0000E-04  4.0000E-04  2.0000E-03  2.0000E-03  2.0000E-03  2.0000E-03  2.0000E-03  4.0000E-04  4.0000E-04   0.000    
  13   2.0000E-03  2.0000E-03  2.0000E-03  2.0000E-03  2.0000E-03  2.0000E-03  2.0000E-03  2.0000E-03  2.0000E-03   0.000    
  14    0.000      4.0000E-04  4.0000E-04  4.0000E-04  4.0000E-04  4.0000E-04  4.0000E-04  4.0000E-04  2.0000E-03   0.000    
  15    0.000       0.000      4.0000E-04  4.0000E-04  4.0000E-04  4.0000E-04   0.000       0.000       0.000       0.000    

      VERTICAL HYD. COND. =  1.000000E-06 FOR LAYER   1

         SPECIFIC STORAGE =  1.000000E-06 FOR LAYER   1



                     SPECIFIC YIELD FOR LAYER   1
 READING ON UNIT    7 WITH FORMAT: (10F5.0)            

            1           2           3           4           5           6           7           8           9          10
 ........................................................................................................................
   1   0.2000      0.2000       0.000       0.000       0.000       0.000       0.000       0.000       0.000       0.000    
   2   0.1000      0.2000      0.2000       0.000       0.000      0.1000      0.1000      0.1000       0.000       0.000    
   3    0.000      0.1000      0.2000      0.2000      0.1000      0.1000      0.1000      0.1000       0.000       0.000    
   4   0.1000      0.1000      0.1000      0.2000      0.2000      0.2000      0.1000      0.1000      0.1000       0.000    
   5   0.1000      0.1000      0.1000      0.2000      0.2000      0.2000      0.2000      0.2000      0.2000      0.2000    
   6   0.1000      0.1000      0.1000      0.2000      0.2000      0.2000      0.2000      0.2000      0.1000      0.1000    
   7   0.1000      0.1000      0.1000      0.2000      0.2000      0.2000      0.2000      0.2000      0.1000       0.000    
   8    0.000      0.1000      0.1000      0.2000      0.2000      0.2000      0.2000      0.1000      0.1000       0.000    
   9    0.000      0.1000      0.1000      0.2000      0.2000      0.2000      0.2000      0.1000      0.1000       0.000    
  10    0.000      0.1000      0.1000      0.2000      0.2000      0.2000      0.2000      0.1000      0.1000      0.1000    
  11    0.000      0.1000      0.1000      0.2000      0.2000      0.2000      0.2000      0.1000      0.1000       0.000    
  12   0.1000      0.1000      0.2000      0.2000      0.2000      0.2000      0.2000      0.1000      0.1000       0.000    
  13   0.2000      0.2000      0.2000      0.2000      0.2000      0.2000      0.2000      0.2000      0.2000       0.000    
  14    0.000      0.1000      0.1000      0.1000      0.1000      0.1000      0.1000      0.1000      0.2000       0.000    
  15    0.000       0.000      0.1000      0.1000      0.1000      0.1000       0.000       0.000       0.000       0.000    



              HYD. COND. ALONG ROWS FOR LAYER   2
 READING ON UNIT    7 WITH FORMAT: (10F5.0)            

            1           2           3           4           5           6           7           8           9          10
 ........................................................................................................................
   1   2.0000E-03  2.0000E-03   0.000       0.000       0.000       0.000       0.000       0.000       0.000       0.000    
   2   4.0000E-04  2.0000E-03  2.0000E-03   0.000       0.000      4.0000E-04  4.0000E-04  4.0000E-04   0.000       0.000    
   3    0.000      4.0000E-04  2.0000E-03  2.0000E-03  4.0000E-04  4.0000E-04  4.0000E-04  4.0000E-04   0.000       0.000    
   4   4.0000E-04  4.0000E-04  4.0000E-04  2.0000E-03  2.0000E-03  2.0000E-03  4.0000E-04  4.0000E-04  4.0000E-04   0.000    
   5   4.0000E-04  4.0000E-04  4.0000E-04  2.0000E-03  2.0000E-03  2.0000E-03  2.0000E-03  2.0000E-03  2.0000E-03  2.0000E-03
   6   4.0000E-04  4.0000E-04  4.0000E-04  2.0000E-03  2.0000E-03  2.0000E-03  2.0000E-03  2.0000E-03  4.0000E-04  4.0000E-04
   7   4.0000E-04  4.0000E-04  4.0000E-04  2.0000E-03  2.0000E-03  2.0000E-03  2.0000E-03  2.0000E-03  4.0000E-04   0.000    
   8    0.000      4.0000E-04  4.0000E-04  2.0000E-03  2.0000E-03  2.0000E-03  2.0000E-03  4.0000E-04  4.0000E-04   0.000    
   9    0.000      4.0000E-04  4.0000E-04  2.0000E-03  2.0000E-03  2.0000E-03  2.0000E-03  4.0000E-04  4.0000E-04   0.000    
  10    0.000      4.0000E-04  4.0000E-04  2.0000E-03  2.0000E-03  2.0000E-03  2.0000E-03  4.0000E-04  4.0000E-04  4.0000E-04
  11    0.000      4.0000E-04  4.0000E-04  2.0000E-03  2.0000E-03  2.0000E-03  2.0000E-03  4.0000E-04  4.0000E-04   0.000    
  12   4.0000E-04  4.0000E-04  2.0000E-03  2.0000E-03  2.0000E-03  2.0000E-03  2.0000E-03  4.0000E-04  4.0000E-04   0.000    
  13   2.0000E-03  2.0000E-03  2.0000E-03  2.0000E-03  2.0000E-03  2.0000E-03  2.0000E-03  2.0000E-03  2.0000E-03   0.000    
  14    0.000      4.0000E-04  4.0000E-04  4.0000E-04  4.0000E-04  4.0000E-04  4.0000E-04  4.0000E-04  2.0000E-03   0.000    
  15    0.000       0.000      4.0000E-04  4.0000E-04  4.0000E-04  4.0000E-04   0.000       0.000       0.000       0.000    

      VERTICAL HYD. COND. =  1.000000E-06 FOR LAYER   2

         SPECIFIC STORAGE =  1.000000E-06 FOR LAYER   2



                     SPECIFIC YIELD FOR LAYER   2
 READING ON UNIT    7 WITH FORMAT: (10F5.0)            

            1           2           3           4           5           6           7           8           9          10
 ........................................................................................................................
   1   0.2000      0.2000       0.000       0.000       0.000       0.000       0.000       0.000       0.000       0.000    
   2   0.1000      0.2000      0.2000       0.000       0.000      0.1000      0.1000      0.1000       0.000       0.000    
   3    0.000      0.1000      0.2000      0.2000      0.1000      0.1000      0.1000      0.1000       0.000       0.000    
   4   0.1000      0.1000      0.1000      0.2000      0.2000      0.2000      0.1000      0.1000      0.1000       0.000    
   5   0.1000      0.1000      0.1000      0.2000      0.2000      0.2000      0.2000      0.2000      0.2000      0.2000    
   6   0.1000      0.1000      0.1000      0.2000      0.2000      0.2000      0.2000      0.2000      0.1000      0.1000    
   7   0.1000      0.1000      0.1000      0.2000      0.2000      0.2000      0.2000      0.2000      0.1000       0.000    
   8    0.000      0.1000      0.1000      0.2000      0.2000      0.2000      0.2000      0.1000      0.1000       0.000    
   9    0.000      0.1000      0.1000      0.2000      0.2000      0.2000      0.2000      0.1000      0.1000       0.000    
  10    0.000      0.1000      0.1000      0.2000      0.2000      0.2000      0.2000      0.1000      0.1000      0.1000    
  11    0.000      0.1000      0.1000      0.2000      0.2000      0.2000      0.2000      0.1000      0.1000       0.000    
  12   0.1000      0.1000      0.2000      0.2000      0.2000      0.2000      0.2000      0.1000      0.1000       0.000    
  13   0.2000      0.2000      0.2000      0.2000      0.2000      0.2000      0.2000      0.2000      0.2000       0.000    
  14    0.000      0.1000      0.1000      0.1000      0.1000      0.1000      0.1000      0.1000      0.2000       0.000    
  15    0.000       0.000      0.1000      0.1000      0.1000      0.1000       0.000       0.000       0.000       0.000    

 WEL -- WELL PACKAGE FOR NWT VERSION 1.1.4,  4/01/2018 INPUT READ FROM UNIT   16
 #Well Package input for test simulation 2
 No named parameters
 MAXIMUM OF     10 ACTIVE WELLS AT ONE TIME
 CELL-BY-CELL FLOWS WILL BE PRINTED WHEN ICBCFL NOT 0
 No named parameters


     0 Well parameters

 GHB -- GENERAL-HEAD BOUNDARY PACKAGE, VERSION 7, 5/2/2005
         INPUT READ FROM UNIT   17
 No named parameters
 MAXIMUM OF      2 ACTIVE GHB CELLS AT ONE TIME
 CELL-BY-CELL FLOWS WILL BE PRINTED WHEN ICBCFL NOT 0


     0 GHB parameters

 SFR7 -- STREAMFLOW ROUTING PACKAGE, VERSION 1.0.5, 2012-04-05
         INPUT READ FROM UNIT  15
 #SFR2 Package input for Test Simulation 2
 No named parameters


 NUMBER OF STREAM REACHES IS   36

 NUMBER OF STREAM SEGMENTS IS    8

 NUMBER OF STREAM PARAMETERS IS    0

 NUMBER OF STREAM SEGMENTS DEFINED USING PARAMETERS IS              0

 MAXIMUM ERROR FOR STREAM LEAKAGE RATES IS  1.00E-06

 CONSTANT FOR MANNINGS EQUATION IS  1.4860E+00



 STREAM OUTPUT WILL BE WRITTEN TO FILE ON UNIT   81


   STREAM NETWORK DESCRIPTION: 

   LAYER    ROW    COL   SEGMENT   REACH     LENGTH
                          NUMBER   NUMBER    IN CELL        
   --------------------------------------------------
      1      1      1       1        1    4.5000E+03
      1      2      2       1        2    7.0000E+03
      1      3      3       1        3    6.0000E+03
      1      3      4       1        4    5.5500E+03
      1      4      5       2        1    6.5000E+03
      1      5      6       2        2    5.0000E+03
      1      6      6       2        3    5.0000E+03
      1      7      6       2        4    5.0000E+03
      1      8      6       2        5    5.0000E+03
      1      3      5       3        1    5.0000E+03
      1      3      6       3        2    5.0000E+03
      1      3      7       3        3    4.5000E+03
      1      4      8       3        4    6.0000E+03
      1      5      8       3        5    5.0000E+03
      1      6      8       3        6    2.0000E+03
      1      5     10       4        1    2.5000E+03
      1      5      9       4        2    5.0000E+03
      1      6      8       4        3    3.5000E+03
      1      6      8       5        1    4.0000E+03
      1      7      7       5        2    5.0000E+03
      1      8      7       5        3    3.5000E+03
      1      8      6       5        4    2.5000E+03
      1      9      6       6        1    5.0000E+03
      1     10      7       6        2    5.0000E+03
      1     11      7       6        3    5.0000E+03
      1     12      7       6        4    5.0000E+03
      1     13      7       6        5    2.0000E+03
      1     14      9       7        1    5.0000E+03
      1     13      8       7        2    5.5000E+03
      1     13      7       7        3    5.0000E+03
      1     13      6       8        1    5.0000E+03
      1     13      5       8        2    5.0000E+03
      1     13      4       8        3    5.0000E+03
      1     13      3       8        4    5.0000E+03
      1     13      2       8        5    5.0000E+03
      1     13      1       8        6    3.0000E+03




 UZF1 -- UNSATURATED FLOW PACKAGE, VERSION 1.5, 09/10/2019
         INPUT READ FROM UNIT 19
 #UZF Package input for test simulation 2
 No named parameters



            AREAL EXTENT OF UZ FLOW
 READING ON UNIT   19 WITH FORMAT: (FREE)              

                1           2           3           4           5           6           7           8           9          10
 ............................................................................................................................
   1            1           1           0           0           0           0           0           0           0           0
   2            1           1           1           0           0           1           1           1           0           0
   3            0           1           1           1           1           1           1           1           0           0
   4            1           1           1           1           1           1           1           1           1           0
   5            1           1           1           1           1           1           1           1           1           1
   6            1           1           1           1           1           1           1           1           1           1
   7            1           1           1           1           1           1           1           1           1           0
   8            0           1           1           1           1           1           1           1           1           0
   9            0           1           1           1           1           1           1           1           1           0
  10            0           1           1           1           1           1           1           1           1           1
  11            0           1           1           1           1           1           1           1           1           0
  12            1           1           1           1           1           1           1           1           1           0
  13            1           1           1           1           1           1           1           1           1           0
  14            0           1           1           1           1           1           1           1           1           0
  15            0           0           1           1           1           1           0           0           0           0
 OPTION 4 -- RECHARGE IN UZF TO HIGHEST CELL WITH WATER TABLE



            ROUTING OVERLAND RUNOFF
 READING ON UNIT   19 WITH FORMAT: (FREE)              

                1           2           3           4           5           6           7           8           9          10
 ............................................................................................................................
   1            1           1           0           0           0           0           0           0           0           0
   2            1           1           1           0           0           3           3           3           0           0
   3            0           1           1           1           3           3           3           3           0           0
   4            8           8           2           2           2           2           2           3           3           0
   5            8           8           8           8           2           2           2           3           4           4
   6            8           8           8           8           8           2           2           4           4           4
   7            8           8           8           8           8           2           5           5           5           0
   8            0           8           8           8           8           2           5           5           5           0
   9            0           8           8           8           8           6           6           6           6           0
  10            0           8           8           8           8           6           6           6           6           6
  11            0           8           8           8           8           8           6           6           7           0
  12            8           8           8           8           8           8           6           7           7           0
  13            8           8           8           8           8           8           7           7           7           0
  14            0           8           8           8           8           8           7           7           7           0
  15            0           0           8           8           8           8           0           0           0           0



               SATURATED VERTICAL K
 READING ON UNIT   19 WITH FORMAT: (10F4.0)            

            1           2           3           4           5           6           7           8           9          10
 ........................................................................................................................
   1   1.0000E-06  1.0000E-06   0.000       0.000       0.000       0.000       0.000       0.000       0.000       0.000    
   2   1.0000E-06  1.0000E-06  1.0000E-06   0.000       0.000      1.0000E-06  1.0000E-06  1.0000E-06   0.000       0.000    
   3    0.000      1.0000E-06  1.0000E-06  1.0000E-06  1.0000E-06  1.0000E-06  1.0000E-06  1.0000E-06   0.000       0.000    
   4   1.0000E-06  1.0000E-06  1.0000E-06  1.0000E-06  1.0000E-06  1.0000E-06  1.0000E-06  1.0000E-06  1.0000E-06   0.000    
   5   1.0000E-06  1.0000E-06  1.0000E-06  1.0000E-06  1.0000E-06  1.0000E-06  1.0000E-06  1.0000E-06  1.0000E-06  1.0000E-06
   6   1.0000E-06  1.0000E-06  1.0000E-06  1.0000E-06  1.0000E-06  1.0000E-06  1.0000E-06  1.0000E-06  1.0000E-06  1.0000E-06
   7   1.0000E-06  1.0000E-06  1.0000E-06  1.0000E-06  1.0000E-06  1.0000E-06  1.0000E-06  1.0000E-06  1.0000E-06   0.000    
   8    0.000      1.0000E-06  1.0000E-06  1.0000E-06  1.0000E-06  1.0000E-06  1.0000E-06  1.0000E-06  1.0000E-06   0.000    
   9    0.000      1.0000E-06  1.0000E-06  1.0000E-06  1.0000E-06  1.0000E-06  1.0000E-06  1.0000E-06  1.0000E-06   0.000    
  10    0.000      1.0000E-06  1.0000E-06  1.0000E-06  1.0000E-06  1.0000E-06  1.0000E-06  1.0000E-06  1.0000E-06  1.0000E-06
  11    0.000      1.0000E-06  1.0000E-06  1.0000E-06  1.0000E-06  1.0000E-06  1.0000E-06  1.0000E-06  1.0000E-06   0.000    
  12   1.0000E-06  1.0000E-06  1.0000E-06  1.0000E-06  1.0000E-06  1.0000E-06  1.0000E-06  1.0000E-06  1.0000E-06   0.000    
  13   1.0000E-06  1.0000E-06  1.0000E-06  1.0000E-06  1.0000E-06  1.0000E-06  1.0000E-06  1.0000E-06  1.0000E-06   0.000    
  14    0.000      1.0000E-06  1.0000E-06  1.0000E-06  1.0000E-06  1.0000E-06  1.0000E-06  1.0000E-06  1.0000E-06   0.000    
  15    0.000       0.000      1.0000E-06  1.0000E-06  1.0000E-06  1.0000E-06   0.000       0.000       0.000       0.000    

     BROOKS-COREY EPSILON =   3.50000    

  SATURATED WATER CONTENT =  0.300000    

UNSATURATED FLOW RESULTS WILL BE PRINTED TO SEPARATE FILES FOR SELECTED MODEL CELLS, AND TIME STEPS AS DEFINED BY OUTPUT CONTROL PACKAGE 

SELECTED MODEL CELLS ARE: 
 ROW NUMBER  COLUMN NUMBER  FORTRAN UNIT NUMBER  OUTPUT OPTION


       3             6                 65                 1
       6             3                 66                 2
      10             5                 67                 3
       0             0                 68                 4



   9 GAGING STATIONS WERE SPECIFIED.
     (Lakes are identified by a negative value of the Lake Number)
     RECORDS WILL BE WRITTEN TO SEPARATE OUTPUT FILES REPRESENTED BY FOLLOWING UNIT NUMBERS:

 Stream Gages:
  GAGE #   SEGMENT   REACH   UNIT   OUTTYPE
       1       1       4      83       1
       2       2       3      84       1
       3       3       5      85       1
       4       4       3      86       1
       5       5       4      87       4
       6       6       5      88       4
       7       7       3      89       4
       8       8       6      90       4
       9       3       1      91       5




1
                            STRESS PERIOD NO.    1, LENGTH =   2628000.    
                            -----------------------------------------------

                              NUMBER OF TIME STEPS =     1

                               MULTIPLIER FOR DELT =     1.000

                            INITIAL TIME STEP SIZE =   2628000.    

 WELL NO.  LAYER   ROW   COL   STRESS RATE         
 --------------------------------------------------
      1      1      6      4      -2.000    
      2      1      6      5      -2.000    
      3      1      7      4      -2.000    
      4      1      7      5      -2.000    
      5      1      8      4      -2.000    
      6      1      8      5      -2.000    
      7      1      9      4      -2.000    
      8      1      9      5      -2.000    
      9      1     10      4      -2.000    
     10      1     10      5      -2.000    

     10 WELLS

 BOUND. NO. LAYER   ROW   COL     STAGE      CONDUCTANCE         
 ----------------------------------------------------------------
      1      1     13      1       988.0          0.3800E-01
      2      1     14      9       1045.          0.3800E-01

      2 GHB CELLS



 CLASSIFICATION & COUNT OF STREAM SEGMENTS BASED ON SOURCE OF INFLOW:

                HEADWATER     DIVERSION     RECEIVES TRIBUTARY FLOW
                ---------     ---------     -----------------------
                     3              1               4



                    INPUT DATA FOR EACH STREAM SEGMENT
 ---------------------------------------------------------------------------------------------

 SEGMENT    SEG.     INFLOW   OVERLAND   STREAM    STREAM   ICALC  OUTFLOW  DIVERSION PRIORITY
    NO.    LENGTH     RATE     RUNOFF      ET       PPT.    METH.  TO SEG.  FROM SEG.    NO.

      1  2.305E+04 2.500E+01 0.000E+00 0.000E+00 0.000E+00    4        2        0        0
      2  2.650E+04 0.000E+00 0.000E+00 0.000E+00 0.000E+00    1        6        0        0
      3  2.750E+04 1.000E+01 0.000E+00 0.000E+00 0.000E+00    0        5        1        0
      4  1.100E+04 1.000E+01 0.000E+00 0.000E+00 0.000E+00    1        5        0        0
      5  1.500E+04 0.000E+00 0.000E+00 0.000E+00 0.000E+00    3        6        0        0
      6  2.200E+04 0.000E+00 0.000E+00 0.000E+00 0.000E+00    1        8        0        0
      7  1.550E+04 1.500E+02 0.000E+00 0.000E+00 0.000E+00    2        8        0        0
      8  2.800E+04 0.000E+00 0.000E+00 0.000E+00 0.000E+00    2        0        0        0


         STREAMBED PROPERTIES AND STREAM DIMENSIONS

 SEGMENT     BED HYD. COND.      BED THICKNESS     ELEV.-TOP OF BED     WIDTH OF STREAM     DEPTH OF STREAM    STREAM ROUGHNESS
    No.     UPPER     LOWER     UPPER     LOWER     UPPER     LOWER     UPPER     LOWER     UPPER     LOWER   CHANNEL      BANK

     1  3.000E-05 3.000E-05 3.000E+00 3.000E+00 1.095E+03 1.075E+03
     2  3.000E-05 3.000E-05 3.000E+00 3.000E+00 1.075E+03 1.050E+03 1.200E+01 1.200E+01                     3.000E-02
     3  3.000E-05 3.000E-05 2.000E+00 2.000E+00 1.075E+03 1.060E+03 1.000E+01 6.000E+00 2.000E+00 1.000E+00
     4  3.000E-05 3.000E-05 3.000E+00 3.000E+00 1.080E+03 1.060E+03 1.000E+01 1.000E+01                     3.000E-02
     5  3.000E-05 3.000E-05 3.000E+00 3.000E+00 1.060E+03 1.045E+03
     6  3.000E-05 3.000E-05 3.000E+00 3.000E+00 1.045E+03 1.025E+03 1.200E+01 1.200E+01                     3.000E-02
     7  6.000E-05 6.000E-05 3.000E+00 3.000E+00 1.040E+03 1.025E+03                                         2.500E-02 4.500E-02
     8  6.000E-05 6.000E-05 3.000E+00 3.000E+00 1.025E+03 9.900E+02                                         2.500E-02 4.500E-02

  EIGHT POINT CROSS-SECTION DATA FOR SEGMENTS WITH ICALC = 2
    X VALUES X VALUES START FROM LEFT SIDE LOOKING DOWNSTREAM

     SEGMENT NO.        X1        X2        X3        X4        X5        X6        X7        X8
            7      0.000E+00 1.000E+01 8.000E+01 1.000E+02 1.500E+02 1.700E+02 2.400E+02 2.500E+02
            8      0.000E+00 1.000E+01 8.000E+01 1.000E+02 1.500E+02 1.700E+02 2.400E+02 2.500E+02

    Z VALUES ARE RELATIVE TO STREAMBED ELEVATION

     SEGMENT NO.          Z1        Z2        Z3        Z4        Z5        Z6        Z7        Z8
            7      2.000E+01 1.300E+01 1.000E+01 2.000E+00 0.000E+00 1.000E+01 1.300E+01 2.000E+01
            8      2.500E+01 1.700E+01 1.300E+01 4.000E+00 0.000E+00 1.000E+01 1.600E+01 2.000E+01

 STREAMFLOW RELATION WITH DEPTH IS BASED ON EQUATION Q = CDPTH*(DEPTH)**FDPTH
 STREAMFLOW RELATION WITH WIDTH IS BASED ON EQUATION Q = AWDTH*(WIDTH)**BWDTH

 SEGMENT NO.      CDPTH     FDPTH    AWDTH     BWDTH

          5 3.000E-01 3.500E-01 3.800E+00 6.000E-01

 STREAMFLOW RELATION WITH DEPTH AND WIDTH IS BASED ON TABULATED VALUES

  SEGMENT NO.   STREAMFLOW       DEPTH       WIDTH

          1     5.0000E-01   2.5000E-01   3.0000E+00
          1     1.0000E+00   4.0000E-01   3.5000E+00
          1     2.0000E+00   5.5000E-01   4.2000E+00
          1     4.0000E+00   7.0000E-01   5.3000E+00
          1     7.0000E+00   8.0000E-01   7.0000E+00
          1     1.0000E+01   9.0000E-01   8.5000E+00
          1     2.0000E+01   1.1000E+00   1.2000E+01
          1     3.0000E+01   1.2500E+00   1.4000E+01
          1     5.0000E+01   1.4000E+00   1.7000E+01
          1     7.5000E+01   1.7000E+00   2.0000E+01
          1     1.0000E+02   1.8000E+00   2.2000E+01






            AREAL INFILTRATION RATE
 READING ON UNIT   19 WITH FORMAT: (10F4.0)            

            1           2           3           4           5           6           7           8           9          10
 ........................................................................................................................
   1   1.0000E-09  2.0000E-09   0.000       0.000       0.000       0.000       0.000       0.000       0.000       0.000    
   2   2.0000E-09  1.0000E-09  2.0000E-09   0.000       0.000      8.0000E-09  8.0000E-09  5.0000E-09   0.000       0.000    
   3    0.000      5.0000E-09  1.0000E-09  1.0000E-09  8.0000E-09  8.0000E-09  5.0000E-09  5.0000E-09   0.000       0.000    
   4   8.0000E-09  5.0000E-09  1.0000E-09  1.0000E-09  1.0000E-09  1.0000E-09  1.0000E-09  1.0000E-09  2.0000E-09   0.000    
   5   8.0000E-09  5.0000E-09  1.0000E-09  1.0000E-09  1.0000E-09  1.0000E-09  1.0000E-09  1.0000E-09  1.0000E-09  1.0000E-09
   6   8.0000E-09  5.0000E-09  5.0000E-09  2.0000E-09  2.0000E-09  1.0000E-09  1.0000E-09  1.0000E-09  1.0000E-09  5.0000E-09
   7   8.0000E-09  5.0000E-09  5.0000E-09  2.0000E-09  2.0000E-09  1.0000E-09  1.0000E-09  2.0000E-09  2.0000E-09   0.000    
   8    0.000      5.0000E-09  5.0000E-09  2.0000E-09  2.0000E-09  1.0000E-09  1.0000E-09  2.0000E-09  5.0000E-09   0.000    
   9    0.000      5.0000E-09  5.0000E-09  2.0000E-09  2.0000E-09  1.0000E-09  1.0000E-09  2.0000E-09  5.0000E-09   0.000    
  10    0.000      5.0000E-09  5.0000E-09  2.0000E-09  2.0000E-09  1.0000E-09  1.0000E-09  2.0000E-09  5.0000E-09  8.0000E-09
  11    0.000      1.0000E-09  1.0000E-09  1.0000E-09  1.0000E-09  1.0000E-09  1.0000E-09  2.0000E-09  5.0000E-09   0.000    
  12   1.0000E-09  1.0000E-09  1.0000E-09  1.0000E-09  1.0000E-09  1.0000E-09  1.0000E-09  1.0000E-09  2.0000E-09   0.000    
  13   1.0000E-09  1.0000E-09  2.0000E-09  2.0000E-09  2.0000E-09  2.0000E-09  2.0000E-09  1.0000E-09  1.0000E-09   0.000    
  14    0.000      2.0000E-09  5.0000E-09  5.0000E-09  5.0000E-09  5.0000E-09  5.0000E-09  2.0000E-09  1.0000E-09   0.000    
  15    0.000       0.000      8.0000E-09  8.0000E-09  8.0000E-09  8.0000E-09   0.000       0.000       0.000       0.000    

                  ET RATE =  5.000000E-08

      ET EXTINCTION DEPTH =   15.0000    



           EXTINCTION WATER CONTENT
 READING ON UNIT   19 WITH FORMAT: (10F4.0)            

            1           2           3           4           5           6           7           8           9          10
 ........................................................................................................................
   1   0.1000      0.1000       0.000       0.000       0.000       0.000       0.000       0.000       0.000       0.000    
   2   0.2000      0.1000      0.1000       0.000       0.000      0.2000      0.2000      0.2000       0.000       0.000    
   3    0.000      0.2000      0.1000      0.1000      0.2000      0.2000      0.2000      0.2000       0.000       0.000    
   4   0.2000      0.2000      0.2000      0.1000      0.1000      0.1000      0.2000      0.2000      0.2000      0.1000    
   5   0.2000      0.2000      0.2000      0.1000      0.1000      0.1000      0.1000      0.1000      0.1000      0.1000    
   6   0.2000      0.2000      0.2000      0.1000      0.1000      0.1000      0.1000      0.1000      0.2000      0.2000    
   7   0.2000      0.2000      0.2000      0.1000      0.1000      0.1000      0.1000      0.1000      0.2000       0.000    
   8    0.000      0.2000      0.2000      0.1000      0.1000      0.1000      0.1000      0.2000      0.2000       0.000    
   9    0.000      0.2000      0.2000      0.1000      0.1000      0.1000      0.1000      0.2000      0.2000       0.000    
  10    0.000      0.2000      0.2000      0.1000      0.1000      0.1000      0.1000      0.2000      0.2000      0.2000    
  11    0.000      0.2000      0.2000      0.1000      0.1000      0.1000      0.1000      0.2000      0.2000       0.000    
  12   0.2000      0.2000      0.1000      0.1000      0.1000      0.1000      0.1000      0.2000      0.2000       0.000    
  13   0.1000      0.1000      0.1000      0.1000      0.1000      0.1000      0.1000      0.1000      0.1000       0.000    
  14    0.000      0.2000      0.2000      0.2000      0.2000      0.2000      0.2000      0.2000      0.1000       0.000    
  15    0.000       0.000      0.2000      0.2000      0.2000      0.2000       0.000       0.000       0.000       0.000    
 
 SOLVING FOR HEAD 
                                                   Max.-Head-Change                         Max.-Flux-Residual
  Residual-Control   Outer-Iter.   Inner-Iter.     Column Row Layer    Maximum-Head-Change  Column Row Layer    Maximum-Flux-Residual          L2-NORM 
          0                 1           4             4    7     1      -0.2160450612E+02       4   13    2         0.5130048276E+01      0.1508802457E+02
          0                 2           3             3   15     2      -0.3399289777E+01       6    6    1        -0.7377279494E+00      0.1958277841E+01
          0                 3           3             7   12     1      -0.1353362811E+01       7   12    1        -0.5017008104E+00      0.5942480505E+00
          0                 4           3             7   11     1      -0.5876074464E+00       7   11    1        -0.2368346406E+00      0.2500761859E+00
          0                 5           3             7   11     1      -0.1506978156E+00       7   11    1        -0.5729571939E-01      0.5829194627E-01
          0                 6           2             7   11     1      -0.3839532227E-01       7   11    1        -0.1480566283E-01      0.1495736245E-01
          0                 7           2             7   11     1      -0.9820967560E-02       7   11    1        -0.3758583284E-02      0.3792487631E-02
          0                 8           2             7   11     1      -0.2513501735E-02       7   11    1        -0.9642310879E-03      0.9728435276E-03
          0                 9           1             7   11     1      -0.6419111482E-03       7   11    1        -0.2463251967E-03      0.2484416256E-03
          0                10           1             7   11     1      -0.1596164559E-03       7   11    1        -0.6095790667E-04      0.6153217563E-04
          0                11           1             7   11     1      -0.4608528977E-04       7   11    1        -0.1756063733E-04      0.1809130082E-04

    ------------------------------------------------
       NWT REQUIRED           11 OUTER ITERATIONS 
       AND A TOTAL OF         25 INNER ITERATIONS.
    ------------------------------------------------

 OUTPUT CONTROL FOR STRESS PERIOD    1   TIME STEP    1
    PRINT BUDGET
    SAVE BUDGET

            WELLS   PERIOD    1   STEP   1
 WELL      1   LAYER   1   ROW     6   COL     4   RATE    -2.00000    
 WELL      2   LAYER   1   ROW     6   COL     5   RATE    -2.00000    
 WELL      3   LAYER   1   ROW     7   COL     4   RATE    -2.00000    
 WELL      4   LAYER   1   ROW     7   COL     5   RATE    -2.00000    
 WELL      5   LAYER   1   ROW     8   COL     4   RATE    -2.00000    
 WELL      6   LAYER   1   ROW     8   COL     5   RATE    -2.00000    
 WELL      7   LAYER   1   ROW     9   COL     4   RATE    -2.00000    
 WELL      8   LAYER   1   ROW     9   COL     5   RATE    -2.00000    
 WELL      9   LAYER   1   ROW    10   COL     4   RATE    -2.00000    
 WELL     10   LAYER   1   ROW    10   COL     5   RATE    -2.00000    

  HEAD DEP BOUNDS   PERIOD    1   STEP     1
 BOUNDARY      1   LAYER   1   ROW    13   COL     1   RATE   -0.280512    
 BOUNDARY      2   LAYER   1   ROW    14   COL     9   RATE    0.207725    



 STREAM LISTING     PERIOD      1   STEP        1

 LAYER ROW COL. STREAM  RCH.  FLOW INTO     FLOW TO   FLOW OUT OF   OVRLND.     DIRECT     STREAM       STREAM     STREAM     STREAM   STREAMBED  STREAMBED
                SEG.NO.  NO.  STRM. RCH.    AQUIFER    STRM. RCH.    RUNOFF     PRECIP       ET          HEAD       DEPTH      WIDTH   CONDCTNC.   GRADIENT

   1    1    1     1     1    2.5000E+01  1.1998E+00   2.3800E+01  0.000E+00  0.000E+00  0.000E+00  1.09422E+03  1.171E+00  1.294E+01  5.824E-01  6.867E-01
   1    2    2     1     2    2.3800E+01  2.7459E+00   2.1054E+01  0.000E+00  0.000E+00  0.000E+00  1.08920E+03  1.140E+00  1.253E+01  8.774E-01  1.043E+00
   1    3    3     1     3    2.1054E+01  2.9175E+00   1.8137E+01  0.000E+00  0.000E+00  0.000E+00  1.08351E+03  1.094E+00  1.188E+01  7.127E-01  1.365E+00
   1    3    4     1     4    1.8137E+01  2.4788E+00   1.5658E+01  0.000E+00  0.000E+00  0.000E+00  1.07846E+03  1.048E+00  1.103E+01  6.124E-01  1.349E+00
   1    4    5     2     1    5.6579E+00  2.6687E+00   2.9893E+00  0.000E+00  0.000E+00  0.000E+00  1.07236E+03  4.214E-01  1.200E+01  7.800E-01  1.140E+00
   1    5    6     2     2    2.9893E+00  1.9596E+00   1.0296E+00  0.000E+00  0.000E+00  0.000E+00  1.06678E+03  2.661E-01  1.200E+01  6.000E-01  1.089E+00
   1    6    6     2     3    1.0296E+00  1.0296E+00   0.0000E+00  0.000E+00  0.000E+00  0.000E+00  1.06183E+03  4.008E-02  1.200E+01  6.000E-01  1.013E+00
   1    7    6     2     4    0.0000E+00  0.0000E+00   0.0000E+00  0.000E+00  0.000E+00  0.000E+00  1.05708E+03  0.000E+00  1.200E+01  6.000E-01  1.000E+00
   1    8    6     2     5    0.0000E+00  0.0000E+00   0.0000E+00  0.000E+00  0.000E+00  0.000E+00  1.05236E+03  0.000E+00  1.200E+01  6.000E-01  1.000E+00
   1    3    5     3     1    1.0000E+01  2.0728E+00   7.9272E+00  0.000E+00  0.000E+00  0.000E+00  1.07555E+03  1.909E+00  9.636E+00  7.227E-01  1.434E+00
   1    3    6     3     2    7.9272E+00  1.8472E+00   6.0800E+00  0.000E+00  0.000E+00  0.000E+00  1.07264E+03  1.727E+00  8.909E+00  6.682E-01  1.382E+00
   1    3    7     3     3    6.0800E+00  1.3281E+00   4.7519E+00  0.000E+00  0.000E+00  0.000E+00  1.06987E+03  1.555E+00  8.218E+00  5.547E-01  1.197E+00
   1    4    8     3     4    4.7519E+00  1.6835E+00   3.0684E+00  0.000E+00  0.000E+00  0.000E+00  1.06682E+03  1.364E+00  7.455E+00  6.709E-01  1.255E+00
   1    5    8     3     5    3.0684E+00  1.5790E+00   1.4894E+00  0.000E+00  0.000E+00  0.000E+00  1.06362E+03  1.164E+00  6.655E+00  4.991E-01  1.582E+00
   1    6    8     3     6    1.4894E+00  5.5980E-01   9.2965E-01  0.000E+00  0.000E+00  0.000E+00  1.06158E+03  1.036E+00  6.145E+00  1.844E-01  1.518E+00
   1    5   10     4     1    1.0000E+01  9.0525E-01   9.0947E+00  0.000E+00  0.000E+00  0.000E+00  1.07835E+03  6.210E-01  1.000E+01  2.500E-01  1.207E+00
   1    5    9     4     2    9.0947E+00  1.7835E+00   7.3113E+00  0.000E+00  0.000E+00  0.000E+00  1.07148E+03  5.670E-01  1.000E+01  5.000E-01  1.189E+00
   1    6    8     4     3    7.3113E+00  1.2257E+00   6.0855E+00  0.000E+00  0.000E+00  0.000E+00  1.06368E+03  5.021E-01  1.000E+01  3.500E-01  1.167E+00
   1    6    8     5     1    7.0152E+00  3.9219E-01   6.6230E+00  0.000E+00  0.000E+00  0.000E+00  1.05859E+03  5.874E-01  1.202E+01  4.809E-01  2.718E-01
   1    7    7     5     2    6.6230E+00  1.3115E+00   5.3115E+00  0.000E+00  0.000E+00  0.000E+00  1.05406E+03  5.606E-01  1.110E+01  5.549E-01  7.878E-01
   1    8    7     5     3    5.3115E+00  9.5885E-01   4.3527E+00  0.000E+00  0.000E+00  0.000E+00  1.04977E+03  5.207E-01  9.778E+00  3.422E-01  9.339E-01
   1    8    6     5     4    4.3527E+00  7.5788E-01   3.5948E+00  0.000E+00  0.000E+00  0.000E+00  1.04674E+03  4.862E-01  8.696E+00  2.174E-01  1.162E+00
   1    9    6     6     1    3.5948E+00  1.9884E+00   1.6063E+00  0.000E+00  0.000E+00  0.000E+00  1.04304E+03  3.141E-01  1.200E+01  6.000E-01  1.105E+00
   1   10    7     6     2    1.6063E+00  1.3388E+00   2.6756E-01  0.000E+00  0.000E+00  0.000E+00  1.03835E+03  1.702E-01  1.200E+01  6.000E-01  7.438E-01
   1   11    7     6     3    2.6756E-01  2.6756E-01   0.0000E+00  0.000E+00  0.000E+00  0.000E+00  1.03365E+03  1.806E-02  1.200E+01  6.000E-01  9.994E-01
   1   12    7     6     4    0.0000E+00  0.0000E+00   0.0000E+00  0.000E+00  0.000E+00  0.000E+00  1.02909E+03  0.000E+00  1.200E+01  6.000E-01  7.126E-01
   1   13    7     6     5    0.0000E+00 -7.9898E-01   7.9898E-01  0.000E+00  0.000E+00  0.000E+00  1.02601E+03  1.021E-01  1.200E+01  2.400E-01 -1.110E+00
   1   14    9     7     1    1.5000E+02  1.8647E+00   1.4814E+02  0.000E+00  0.000E+00  0.000E+00  1.03987E+03  2.286E+00  5.529E+01  5.592E+00  1.111E-01
   1   13    8     7     2    1.4814E+02  1.9100E+00   1.4623E+02  0.000E+00  0.000E+00  0.000E+00  1.03478E+03  2.276E+00  5.524E+01  6.146E+00  1.036E-01
   1   13    7     7     3    1.4623E+02  1.9265E+00   1.4430E+02  0.000E+00  0.000E+00  0.000E+00  1.02969E+03  2.266E+00  5.520E+01  5.582E+00  1.150E-01
   1   13    6     8     1    1.4510E+02  6.3730E-01   1.4446E+02  0.000E+00  0.000E+00  0.000E+00  1.02465E+03  2.780E+00  4.031E+01  4.107E+00  5.172E-02
   1   13    5     8     2    1.4446E+02 -7.1707E-02   1.4453E+02  0.000E+00  0.000E+00  0.000E+00  1.01840E+03  2.778E+00  4.028E+01  4.104E+00 -5.824E-03
   1   13    4     8     3    1.4453E+02 -9.0001E-01   1.4543E+02  0.000E+00  0.000E+00  0.000E+00  1.01216E+03  2.781E+00  4.033E+01  4.109E+00 -7.300E-02
   1   13    3     8     4    1.4543E+02 -1.5788E+00   1.4701E+02  0.000E+00  0.000E+00  0.000E+00  1.00592E+03  2.790E+00  4.046E+01  4.123E+00 -1.277E-01
   1   13    2     8     5    1.4701E+02 -1.7393E+00   1.4875E+02  0.000E+00  0.000E+00  0.000E+00  9.99677E+02  2.802E+00  4.063E+01  4.140E+00 -1.400E-01
   1   13    1     8     6    1.4875E+02 -1.7284E+00   1.5048E+02  0.000E+00  0.000E+00  0.000E+00  9.94689E+02  2.814E+00  4.080E+01  2.495E+00 -2.309E-01



 UBDSV3 SAVING "           GW ET" ON UNIT  61 AT TIME STEP 1, STRESS PERIOD 1
 UBDSV3 SAVING "    UZF RECHARGE" ON UNIT  61 AT TIME STEP 1, STRESS PERIOD 1
 UBDSV3 SAVING " SURFACE LEAKAGE" ON UNIT  61 AT TIME STEP 1, STRESS PERIOD 1
 UBDSV3 SAVING "       HORT+DUNN" ON UNIT  61 AT TIME STEP 1, STRESS PERIOD 1
 UBDSV3 SAVING "  STORAGE CHANGE" ON UNIT  61 AT TIME STEP 1, STRESS PERIOD 1


UNSATURATED ZONE PACKAGE VOLUMETRIC BUDGET FOR  TIME STEP     1 STRESS PERIOD    1
  ------------------------------------------------------------------------------



     CUMULATIVE VOLUMES      L**3       RATES FOR THIS TIME STEP      L**3/T
     ------------------                 ------------------------

           IN:                                      IN:
           ---                                      ---
        INFILTRATION =    22272300.0000          INFILTRATION =           8.4750

          OUT:                                     OUT:
          ----                                     ----
              UZF ET =       0.0000E+00                UZF ET =       0.0000E+00
        UZF RECHARGE =    22272300.0000          UZF RECHARGE =           8.4750

            IN - OUT =       0.0000E+00              IN - OUT =       0.0000E+00

          STORAGE:                                 STORAGE:
          --------                                 --------
      STORAGE CHANGE =       0.0000E+00        STORAGE CHANGE =       0.0000E+00

 PERCENT DISCREPANCY IS DIFFERENCE BETWEEN IN-OUT MINUS CHANGE IN STORAGE
 DIVIDED BY THE AVERAGE OF IN AND OUT TIMES 100

 PERCENT DISCREPANCY =           0.00     PERCENT DISCREPANCY =           0.00






1
  VOLUMETRIC BUDGET FOR ENTIRE MODEL AT END OF TIME STEP    1, STRESS PERIOD   1
  ------------------------------------------------------------------------------

     CUMULATIVE VOLUMES      L**3       RATES FOR THIS TIME STEP      L**3/T
     ------------------                 ------------------------

           IN:                                      IN:
           ---                                      ---
             STORAGE     =           0.0000               STORAGE     =           0.0000
       CONSTANT HEAD     =           0.0000         CONSTANT HEAD     =           0.0000
               WELLS     =           0.0000                 WELLS     =           0.0000
     HEAD DEP BOUNDS     =      545901.6875       HEAD DEP BOUNDS     =           0.2077
      STREAM LEAKAGE     =   108637720.0000        STREAM LEAKAGE     =          41.3386
        UZF RECHARGE     =    22272316.0000          UZF RECHARGE     =           8.4750
               GW ET     =           0.0000                 GW ET     =           0.0000
     SURFACE LEAKAGE     =           0.0000       SURFACE LEAKAGE     =           0.0000

                TOTAL IN =   131455936.0000                  TOTAL IN =          50.0213

          OUT:                                     OUT:
          ----                                     ----
             STORAGE     =           0.0000               STORAGE     =           0.0000
       CONSTANT HEAD     =           0.0000         CONSTANT HEAD     =           0.0000
               WELLS     =    52560000.0000                 WELLS     =          20.0000
     HEAD DEP BOUNDS     =      737185.2500       HEAD DEP BOUNDS     =           0.2805
      STREAM LEAKAGE     =    17915570.0000        STREAM LEAKAGE     =           6.8172
        UZF RECHARGE     =           0.0000          UZF RECHARGE     =           0.0000
               GW ET     =    60243184.0000                 GW ET     =          22.9236
     SURFACE LEAKAGE     =           0.0000       SURFACE LEAKAGE     =           0.0000

               TOTAL OUT =   131455936.0000                 TOTAL OUT =          50.0213

                IN - OUT =           0.0000                  IN - OUT =           0.0000

     PERCENT DISCREPANCY =           0.00         PERCENT DISCREPANCY =           0.00






         TIME SUMMARY AT END OF TIME STEP    1 IN STRESS PERIOD    1
                    SECONDS     MINUTES      HOURS       DAYS        YEARS
                    -----------------------------------------------------------
   TIME STEP LENGTH 2.62800E+06  43800.      730.00      30.417     8.32763E-02
 STRESS PERIOD TIME 2.62800E+06  43800.      730.00      30.417     8.32763E-02
         TOTAL TIME 2.62800E+06  43800.      730.00      30.417     8.32763E-02
1
1
                            STRESS PERIOD NO.    2, LENGTH =   2628000.    
                            -----------------------------------------------

                              NUMBER OF TIME STEPS =    15

                               MULTIPLIER FOR DELT =     1.100

                            INITIAL TIME STEP SIZE =   82713.07    

 WELL NO.  LAYER   ROW   COL   STRESS RATE         
 --------------------------------------------------
      1      1      6      4      -2.000    
      2      1      6      5      -2.000    
      3      1      7      4      -2.000    
      4      1      7      5      -2.000    
      5      1      8      4      -2.000    
      6      1      8      5      -2.000    
      7      1      9      4      -2.000    
      8      1      9      5      -2.000    
      9      1     10      4      -2.000    
     10      1     10      5      -2.000    

     10 WELLS

 REUSING NON-PARAMETER GHB CELLS FROM LAST STRESS PERIOD

      2 GHB CELLS

 REUSING STREAM SEGMENT DATA FROM LAST STRESS PERIOD



            AREAL INFILTRATION RATE
 READING ON UNIT   19 WITH FORMAT: (10F4.0)            

            1           2           3           4           5           6           7           8           9          10
 ........................................................................................................................
   1   8.0000E-09  1.6000E-08   0.000       0.000       0.000       0.000       0.000       0.000       0.000       0.000    
   2   1.6000E-08  8.0000E-09  1.6000E-08   0.000       0.000      6.4000E-08  6.4000E-08  4.0000E-08   0.000       0.000    
   3    0.000      4.0000E-08  8.0000E-09  8.0000E-09  6.4000E-08  6.4000E-08  4.0000E-08  4.0000E-08   0.000       0.000    
   4   6.4000E-08  4.0000E-08  8.0000E-09  8.0000E-09  8.0000E-09  8.0000E-09  8.0000E-09  8.0000E-09  1.6000E-08   0.000    
   5   6.4000E-08  4.0000E-08  8.0000E-09  8.0000E-09  8.0000E-09  8.0000E-09  8.0000E-09  8.0000E-09  8.0000E-09  8.0000E-09
   6   6.4000E-08  4.0000E-08  4.0000E-08  1.6000E-08  1.6000E-08  8.0000E-09  8.0000E-09  8.0000E-09  8.0000E-09  4.0000E-08
   7   6.4000E-08  4.0000E-08  4.0000E-08  1.6000E-08  1.6000E-08  8.0000E-09  8.0000E-09  1.6000E-08  1.6000E-08   0.000    
   8    0.000      4.0000E-08  4.0000E-08  1.6000E-08  1.6000E-08  8.0000E-09  8.0000E-09  1.6000E-08  4.0000E-08   0.000    
   9    0.000      4.0000E-08  4.0000E-08  1.6000E-08  1.6000E-08  8.0000E-09  8.0000E-09  1.6000E-08  4.0000E-08   0.000    
  10    0.000      4.0000E-08  4.0000E-08  1.6000E-08  1.6000E-08  8.0000E-09  8.0000E-09  1.6000E-08  4.0000E-08  6.4000E-08
  11    0.000      8.0000E-09  8.0000E-09  8.0000E-09  8.0000E-09  8.0000E-09  8.0000E-09  1.6000E-08  4.0000E-08   0.000    
  12   8.0000E-09  8.0000E-09  8.0000E-09  8.0000E-09  8.0000E-09  8.0000E-09  8.0000E-09  8.0000E-09  1.6000E-08   0.000    
  13   8.0000E-09  8.0000E-09  1.6000E-08  1.6000E-08  1.6000E-08  1.6000E-08  1.6000E-08  8.0000E-09  8.0000E-09   0.000    
  14    0.000      1.6000E-08  4.0000E-08  4.0000E-08  4.0000E-08  4.0000E-08  4.0000E-08  1.6000E-08  8.0000E-09   0.000    
  15    0.000       0.000      6.4000E-08  6.4000E-08  6.4000E-08  6.4000E-08   0.000       0.000       0.000       0.000    

                  ET RATE =  5.000000E-08

 USING ET EXTINCTION DEPTH FROM PREVIOUS STRESS PERIOD. CURRENT PERIOD IS:       2

 USING EXTINCTION WATER CONTENT FROM PREVIOUS STRESS PERIOD. CURRENT PERIOD IS:       2
 
 SOLVING FOR HEAD 
                                                   Max.-Head-Change                         Max.-Flux-Residual
  Residual-Control   Outer-Iter.   Inner-Iter.     Column Row Layer    Maximum-Head-Change  Column Row Layer    Maximum-Flux-Residual          L2-NORM 
          0                 1           2             6   15     2      -0.5025191464E+00       6   12    1         0.3124416208E+00      0.1416203316E+01
          0                 2           2             6   15     2       0.4758704881E-01       6    3    1         0.4951395638E-01      0.1197835032E+00
          0                 3           2             6   15     2      -0.2894372442E-02       6    3    1         0.8362974587E-02      0.1415876113E-01
          0                 4           1             5   15     2       0.5396681903E-04       6    3    1         0.1412144535E-02      0.2227872185E-02

    ------------------------------------------------
       NWT REQUIRED            4 OUTER ITERATIONS 
       AND A TOTAL OF          7 INNER ITERATIONS.
    ------------------------------------------------

 OUTPUT CONTROL FOR STRESS PERIOD    2   TIME STEP    1
    PRINT BUDGET
    SAVE BUDGET

            WELLS   PERIOD    2   STEP   1
 WELL      1   LAYER   1   ROW     6   COL     4   RATE    -2.00000    
 WELL      2   LAYER   1   ROW     6   COL     5   RATE    -2.00000    
 WELL      3   LAYER   1   ROW     7   COL     4   RATE    -2.00000    
 WELL      4   LAYER   1   ROW     7   COL     5   RATE    -2.00000    
 WELL      5   LAYER   1   ROW     8   COL     4   RATE    -2.00000    
 WELL      6   LAYER   1   ROW     8   COL     5   RATE    -2.00000    
 WELL      7   LAYER   1   ROW     9   COL     4   RATE    -2.00000    
 WELL      8   LAYER   1   ROW     9   COL     5   RATE    -2.00000    
 WELL      9   LAYER   1   ROW    10   COL     4   RATE    -2.00000    
 WELL     10   LAYER   1   ROW    10   COL     5   RATE    -2.00000    

  HEAD DEP BOUNDS   PERIOD    2   STEP     1
 BOUNDARY      1   LAYER   1   ROW    13   COL     1   RATE   -0.280573    
 BOUNDARY      2   LAYER   1   ROW    14   COL     9   RATE    0.207565    



 STREAM LISTING     PERIOD      2   STEP        1

 LAYER ROW COL. STREAM  RCH.  FLOW INTO     FLOW TO   FLOW OUT OF   OVRLND.     DIRECT     STREAM       STREAM     STREAM     STREAM   STREAMBED  STREAMBED
                SEG.NO.  NO.  STRM. RCH.    AQUIFER    STRM. RCH.    RUNOFF     PRECIP       ET          HEAD       DEPTH      WIDTH   CONDCTNC.   GRADIENT

   1    1    1     1     1    2.5000E+01  1.1978E+00   2.3802E+01  0.000E+00  0.000E+00  0.000E+00  1.09422E+03  1.171E+00  1.294E+01  5.824E-01  6.855E-01
   1    2    2     1     2    2.3802E+01  2.7411E+00   2.1061E+01  0.000E+00  0.000E+00  0.000E+00  1.08920E+03  1.141E+00  1.254E+01  8.775E-01  1.041E+00
   1    3    3     1     3    2.1061E+01  2.9181E+00   1.8143E+01  0.000E+00  0.000E+00  0.000E+00  1.08351E+03  1.094E+00  1.188E+01  7.128E-01  1.365E+00
   1    3    4     1     4    1.8143E+01  2.4793E+00   1.5664E+01  0.000E+00  0.000E+00  0.000E+00  1.07846E+03  1.048E+00  1.104E+01  6.125E-01  1.349E+00
   1    4    5     2     1    5.6637E+00  2.6689E+00   2.9947E+00  0.000E+00  0.000E+00  0.000E+00  1.07236E+03  4.217E-01  1.200E+01  7.800E-01  1.141E+00
   1    5    6     2     2    2.9947E+00  1.9599E+00   1.0348E+00  0.000E+00  0.000E+00  0.000E+00  1.06678E+03  2.665E-01  1.200E+01  6.000E-01  1.089E+00
   1    6    6     2     3    1.0348E+00  1.0348E+00   0.0000E+00  0.000E+00  0.000E+00  0.000E+00  1.06183E+03  4.020E-02  1.200E+01  6.000E-01  1.013E+00
   1    7    6     2     4    0.0000E+00  0.0000E+00   0.0000E+00  0.000E+00  0.000E+00  0.000E+00  1.05708E+03  0.000E+00  1.200E+01  6.000E-01  1.000E+00
   1    8    6     2     5    0.0000E+00  0.0000E+00   0.0000E+00  0.000E+00  0.000E+00  0.000E+00  1.05236E+03  0.000E+00  1.200E+01  6.000E-01  1.000E+00
   1    3    5     3     1    1.0000E+01  2.0644E+00   7.9356E+00  0.000E+00  0.000E+00  0.000E+00  1.07555E+03  1.909E+00  9.636E+00  7.227E-01  1.428E+00
   1    3    6     3     2    7.9356E+00  1.8388E+00   6.0967E+00  0.000E+00  0.000E+00  0.000E+00  1.07264E+03  1.727E+00  8.909E+00  6.682E-01  1.376E+00
   1    3    7     3     3    6.0967E+00  1.3218E+00   4.7749E+00  0.000E+00  0.000E+00  0.000E+00  1.06987E+03  1.555E+00  8.218E+00  5.547E-01  1.191E+00
   1    4    8     3     4    4.7749E+00  1.6764E+00   3.0985E+00  0.000E+00  0.000E+00  0.000E+00  1.06682E+03  1.364E+00  7.455E+00  6.709E-01  1.249E+00
   1    5    8     3     5    3.0985E+00  1.5790E+00   1.5195E+00  0.000E+00  0.000E+00  0.000E+00  1.06362E+03  1.164E+00  6.655E+00  4.991E-01  1.582E+00
   1    6    8     3     6    1.5195E+00  5.5980E-01   9.5972E-01  0.000E+00  0.000E+00  0.000E+00  1.06158E+03  1.036E+00  6.145E+00  1.844E-01  1.518E+00
   1    5   10     4     1    1.0000E+01  9.0525E-01   9.0947E+00  0.000E+00  0.000E+00  0.000E+00  1.07835E+03  6.210E-01  1.000E+01  2.500E-01  1.207E+00
   1    5    9     4     2    9.0947E+00  1.7835E+00   7.3113E+00  0.000E+00  0.000E+00  0.000E+00  1.07148E+03  5.670E-01  1.000E+01  5.000E-01  1.189E+00
   1    6    8     4     3    7.3113E+00  1.2257E+00   6.0855E+00  0.000E+00  0.000E+00  0.000E+00  1.06368E+03  5.021E-01  1.000E+01  3.500E-01  1.167E+00
   1    6    8     5     1    7.0453E+00  3.9121E-01   6.6541E+00  0.000E+00  0.000E+00  0.000E+00  1.05859E+03  5.883E-01  1.206E+01  4.822E-01  2.704E-01
   1    7    7     5     2    6.6541E+00  1.3142E+00   5.3398E+00  0.000E+00  0.000E+00  0.000E+00  1.05406E+03  5.616E-01  1.113E+01  5.566E-01  7.871E-01
   1    8    7     5     3    5.3398E+00  9.6232E-01   4.3775E+00  0.000E+00  0.000E+00  0.000E+00  1.04977E+03  5.217E-01  9.810E+00  3.434E-01  9.342E-01
   1    8    6     5     4    4.3775E+00  7.6076E-01   3.6167E+00  0.000E+00  0.000E+00  0.000E+00  1.04674E+03  4.872E-01  8.726E+00  2.182E-01  1.162E+00
   1    9    6     6     1    3.6167E+00  1.9894E+00   1.6274E+00  0.000E+00  0.000E+00  0.000E+00  1.04304E+03  3.156E-01  1.200E+01  6.000E-01  1.105E+00
   1   10    7     6     2    1.6274E+00  1.3367E+00   2.9071E-01  0.000E+00  0.000E+00  0.000E+00  1.03835E+03  1.726E-01  1.200E+01  6.000E-01  7.426E-01
   1   11    7     6     3    2.9071E-01  2.9071E-01   0.0000E+00  0.000E+00  0.000E+00  0.000E+00  1.03366E+03  1.898E-02  1.200E+01  6.000E-01  9.976E-01
   1   12    7     6     4    0.0000E+00  0.0000E+00   0.0000E+00  0.000E+00  0.000E+00  0.000E+00  1.02909E+03  0.000E+00  1.200E+01  6.000E-01  7.109E-01
   1   13    7     6     5    0.0000E+00 -7.9964E-01   7.9964E-01  0.000E+00  0.000E+00  0.000E+00  1.02601E+03  1.021E-01  1.200E+01  2.400E-01 -1.111E+00
   1   14    9     7     1    1.5000E+02  1.8416E+00   1.4816E+02  0.000E+00  0.000E+00  0.000E+00  1.03987E+03  2.286E+00  5.529E+01  5.592E+00  1.098E-01
   1   13    8     7     2    1.4816E+02  1.8898E+00   1.4627E+02  0.000E+00  0.000E+00  0.000E+00  1.03478E+03  2.276E+00  5.524E+01  6.146E+00  1.025E-01
   1   13    7     7     3    1.4627E+02  1.9126E+00   1.4436E+02  0.000E+00  0.000E+00  0.000E+00  1.02969E+03  2.266E+00  5.520E+01  5.582E+00  1.142E-01
   1   13    6     8     1    1.4516E+02  6.2823E-01   1.4453E+02  0.000E+00  0.000E+00  0.000E+00  1.02466E+03  2.780E+00  4.031E+01  4.108E+00  5.098E-02
   1   13    5     8     2    1.4453E+02 -7.6129E-02   1.4460E+02  0.000E+00  0.000E+00  0.000E+00  1.01840E+03  2.778E+00  4.028E+01  4.105E+00 -6.182E-03
   1   13    4     8     3    1.4460E+02 -9.0470E-01   1.4551E+02  0.000E+00  0.000E+00  0.000E+00  1.01216E+03  2.782E+00  4.033E+01  4.110E+00 -7.337E-02
   1   13    3     8     4    1.4551E+02 -1.5839E+00   1.4709E+02  0.000E+00  0.000E+00  0.000E+00  1.00592E+03  2.791E+00  4.046E+01  4.123E+00 -1.280E-01
   1   13    2     8     5    1.4709E+02 -1.7533E+00   1.4885E+02  0.000E+00  0.000E+00  0.000E+00  9.99677E+02  2.802E+00  4.064E+01  4.141E+00 -1.411E-01
   1   13    1     8     6    1.4885E+02 -1.7311E+00   1.5058E+02  0.000E+00  0.000E+00  0.000E+00  9.94690E+02  2.815E+00  4.081E+01  2.495E+00 -2.312E-01



[...]
          0                 5           2            10   10     1       0.4541321445E-02       3   15    1         0.4908802885E-02      0.8944309351E-02
          0                 6           2            10   10     1       0.3243305182E-02      10   10    1         0.3490949368E-02      0.5877638550E-02
          0                 7           2            10   10     1       0.2309922582E-02      10   10    1         0.2491186651E-02      0.4026754587E-02
          0                 8           2            10   10     1       0.1643573728E-02      10   10    1         0.1773765829E-02      0.2785229956E-02
          0                 9           1            10   10     1       0.1169054113E-02      10   10    1         0.1261961801E-02      0.1932548344E-02
          0                10           1            10   10     1       0.8314358454E-03      10   10    1         0.8975878965E-03      0.1343018853E-02
                                                   Max.-Head-Change                         Max.-Flux-Residual
  Residual-Control   Outer-Iter.   Inner-Iter.     Column Row Layer    Maximum-Head-Change  Column Row Layer    Maximum-Flux-Residual          L2-NORM 
          0                11           1            10   10     1       0.5912959363E-03      10   10    1         0.6383604871E-03      0.9343613899E-03
          0                12           1            10   10     1       0.4205084655E-03      10   10    1         0.4539838067E-03      0.6506719021E-03
          0                13           1            10   10     1       0.2990490219E-03      10   10    1         0.3228565433E-03      0.4535260076E-03
          0                14           1            10   10     1       0.2126714818E-03      10   10    1         0.2296027173E-03      0.3163915745E-03
          0                15           1            10   10     1       0.1512432009E-03      10   10    1         0.1632840728E-03      0.2209153243E-03
          0                16           1            10   10     1       0.1075579139E-03      10   10    1         0.1161209031E-03      0.1543961044E-03
          0                17           1            10   10     1       0.7649073731E-04      10   10    1         0.8258038588E-04      0.1080006735E-03

    ------------------------------------------------
       NWT REQUIRED           17 OUTER ITERATIONS 
       AND A TOTAL OF         25 INNER ITERATIONS.
    ------------------------------------------------

 NO OUTPUT CONTROL FOR STRESS PERIOD   12   TIME STEP   14
 
 SOLVING FOR HEAD 
                                                   Max.-Head-Change                         Max.-Flux-Residual
  Residual-Control   Outer-Iter.   Inner-Iter.     Column Row Layer    Maximum-Head-Change  Column Row Layer    Maximum-Flux-Residual          L2-NORM 
          0                 1           2             4    7     1       0.1145665445E+00       4    7    1         0.1666096782E+01      0.4935242960E+01
          0                 2           2             3   15     1       0.1250166513E-01       4    7    1         0.1422869745E+00      0.4405561528E+00
          0                 3           2             3   15     1       0.9301974398E-02       3   15    2         0.1908698148E-01      0.5401980568E-01
          0                 4           2            10   10     1       0.6462052161E-02       3   15    1         0.6510632820E-02      0.1537904483E-01
          0                 5           2            10   10     1       0.4527607036E-02      10   10    1         0.4511490371E-02      0.8179909700E-02
          0                 6           2            10   10     1       0.3146713975E-02      10   10    1         0.3153490104E-02      0.5240009946E-02
          0                 7           2            10   10     1       0.2180837582E-02      10   10    1         0.2189897439E-02      0.3491406479E-02
          0                 8           1            10   10     1       0.1509942630E-02      10   10    1         0.1517277577E-02      0.2348248167E-02
          0                 9           1            10   10     1       0.1045073168E-02      10   10    1         0.1050408711E-02      0.1584479754E-02
          0                10           1            10   10     1       0.7232356679E-03      10   10    1         0.7269911918E-03      0.1070923459E-02
                                                   Max.-Head-Change                         Max.-Flux-Residual
  Residual-Control   Outer-Iter.   Inner-Iter.     Column Row Layer    Maximum-Head-Change  Column Row Layer    Maximum-Flux-Residual          L2-NORM 
          0                11           1            10   10     1       0.5004886990E-03      10   10    1         0.5031029596E-03      0.7246984294E-03
          0                12           1            10   10     1       0.3463395857E-03      10   10    1         0.3481524167E-03      0.4909607471E-03
          0                13           1            10   10     1       0.2396666890E-03      10   10    1         0.2409220832E-03      0.3329535834E-03
          0                14           1            10   10     1       0.1658488274E-03      10   10    1         0.1667177821E-03      0.2259692470E-03
          0                15           1            10   10     1       0.1147669525E-03      10   10    1         0.1153683218E-03      0.1535315898E-03
          0                16           1            10   10     1       0.7941841163E-04      10   10    1         0.7983457084E-04      0.1044063483E-03

    ------------------------------------------------
       NWT REQUIRED           16 OUTER ITERATIONS 
       AND A TOTAL OF         23 INNER ITERATIONS.
    ------------------------------------------------

 OUTPUT CONTROL FOR STRESS PERIOD   12   TIME STEP   15
    PRINT BUDGET
    PRINT HEAD FOR ALL LAYERS
    SAVE HEAD FOR ALL LAYERS
    SAVE BUDGET

  HEAD DEP BOUNDS   PERIOD   12   STEP    15
 BOUNDARY      1   LAYER   1   ROW    13   COL     1   RATE   -0.282085    
 BOUNDARY      2   LAYER   1   ROW    14   COL     9   RATE    0.207267    



 STREAM LISTING     PERIOD     12   STEP       15

 LAYER ROW COL. STREAM  RCH.  FLOW INTO     FLOW TO   FLOW OUT OF   OVRLND.     DIRECT     STREAM       STREAM     STREAM     STREAM   STREAMBED  STREAMBED
                SEG.NO.  NO.  STRM. RCH.    AQUIFER    STRM. RCH.    RUNOFF     PRECIP       ET          HEAD       DEPTH      WIDTH   CONDCTNC.   GRADIENT

   1    1    1     1     1    2.5000E+01  1.1927E+00   2.3807E+01  0.000E+00  0.000E+00  0.000E+00  1.09422E+03  1.171E+00  1.294E+01  5.824E-01  6.826E-01
   1    2    2     1     2    2.3807E+01  2.6754E+00   2.1132E+01  0.000E+00  0.000E+00  0.000E+00  1.08920E+03  1.141E+00  1.254E+01  8.780E-01  1.016E+00
   1    3    3     1     3    2.1132E+01  2.9239E+00   1.8208E+01  0.000E+00  0.000E+00  0.000E+00  1.08351E+03  1.095E+00  1.190E+01  7.141E-01  1.365E+00
   1    3    4     1     4    1.8208E+01  2.4846E+00   1.5723E+01  0.000E+00  0.000E+00  0.000E+00  1.07846E+03  1.049E+00  1.106E+01  6.137E-01  1.350E+00
   1    4    5     2     1    5.7235E+00  2.6716E+00   3.0519E+00  0.000E+00  0.000E+00  0.000E+00  1.07236E+03  4.251E-01  1.200E+01  7.800E-01  1.142E+00
   1    5    6     2     2    3.0519E+00  1.9625E+00   1.0893E+00  0.000E+00  0.000E+00  0.000E+00  1.06678E+03  2.709E-01  1.200E+01  6.000E-01  1.090E+00
   1    6    6     2     3    1.0893E+00  1.0893E+00   0.0000E+00  0.000E+00  0.000E+00  0.000E+00  1.06183E+03  4.146E-02  1.200E+01  6.000E-01  1.014E+00
   1    7    6     2     4    0.0000E+00  0.0000E+00   0.0000E+00  0.000E+00  0.000E+00  0.000E+00  1.05708E+03  0.000E+00  1.200E+01  6.000E-01  1.000E+00
   1    8    6     2     5    0.0000E+00  0.0000E+00   0.0000E+00  0.000E+00  0.000E+00  0.000E+00  1.05236E+03  0.000E+00  1.200E+01  6.000E-01  1.000E+00
   1    3    5     3     1    1.0000E+01  1.9021E+00   8.0979E+00  0.000E+00  0.000E+00  0.000E+00  1.07555E+03  1.909E+00  9.636E+00  7.227E-01  1.316E+00
   1    3    6     3     2    8.0979E+00  1.6478E+00   6.4500E+00  0.000E+00  0.000E+00  0.000E+00  1.07264E+03  1.727E+00  8.909E+00  6.682E-01  1.233E+00
   1    3    7     3     3    6.4500E+00  1.1422E+00   5.3078E+00  0.000E+00  0.000E+00  0.000E+00  1.06987E+03  1.555E+00  8.218E+00  5.547E-01  1.030E+00
   1    4    8     3     4    5.3078E+00  1.6150E+00   3.6929E+00  0.000E+00  0.000E+00  0.000E+00  1.06682E+03  1.364E+00  7.455E+00  6.709E-01  1.204E+00
   1    5    8     3     5    3.6929E+00  1.4985E+00   2.1943E+00  0.000E+00  0.000E+00  0.000E+00  1.06362E+03  1.164E+00  6.655E+00  4.991E-01  1.501E+00
   1    6    8     3     6    2.1943E+00  5.5980E-01   1.6345E+00  0.000E+00  0.000E+00  0.000E+00  1.06158E+03  1.036E+00  6.145E+00  1.844E-01  1.518E+00
   1    5   10     4     1    1.0000E+01  9.0525E-01   9.0947E+00  0.000E+00  0.000E+00  0.000E+00  1.07835E+03  6.210E-01  1.000E+01  2.500E-01  1.207E+00
   1    5    9     4     2    9.0947E+00  1.7835E+00   7.3113E+00  0.000E+00  0.000E+00  0.000E+00  1.07148E+03  5.670E-01  1.000E+01  5.000E-01  1.189E+00
   1    6    8     4     3    7.3113E+00  1.2257E+00   6.0855E+00  0.000E+00  0.000E+00  0.000E+00  1.06368E+03  5.021E-01  1.000E+01  3.500E-01  1.167E+00
   1    6    8     5     1    7.7201E+00  2.7406E-01   7.4460E+00  0.000E+00  0.000E+00  0.000E+00  1.05861E+03  6.096E-01  1.281E+01  5.126E-01  1.782E-01
   1    7    7     5     2    7.4460E+00  1.2175E+00   6.2285E+00  0.000E+00  0.000E+00  0.000E+00  1.05409E+03  5.879E-01  1.204E+01  6.021E-01  6.740E-01
   1    8    7     5     3    6.2285E+00  8.8781E-01   5.3407E+00  0.000E+00  0.000E+00  0.000E+00  1.04980E+03  5.545E-01  1.089E+01  3.813E-01  7.762E-01
   1    8    6     5     4    5.3407E+00  7.8575E-01   4.5549E+00  0.000E+00  0.000E+00  0.000E+00  1.04678E+03  5.250E-01  9.918E+00  2.480E-01  1.056E+00
   1    9    6     6     1    4.5549E+00  1.7699E+00   2.7850E+00  0.000E+00  0.000E+00  0.000E+00  1.04311E+03  3.862E-01  1.200E+01  6.000E-01  9.833E-01
   1   10    7     6     2    2.7850E+00  1.1386E+00   1.6464E+00  0.000E+00  0.000E+00  0.000E+00  1.03847E+03  2.853E-01  1.200E+01  6.000E-01  6.326E-01
   1   11    7     6     3    1.6464E+00  7.9933E-01   8.4707E-01  0.000E+00  0.000E+00  0.000E+00  1.03384E+03  2.020E-01  1.200E+01  6.000E-01  4.441E-01
   1   12    7     6     4    8.4707E-01  3.9752E-01   4.4954E-01  0.000E+00  0.000E+00  0.000E+00  1.02923E+03  1.365E-01  1.200E+01  6.000E-01  2.208E-01
   1   13    7     6     5    4.4954E-01 -7.9846E-01   1.2480E+00  0.000E+00  0.000E+00  0.000E+00  1.02607E+03  1.604E-01  1.200E+01  2.400E-01 -1.109E+00
   1   14    9     7     1    1.5000E+02  1.7983E+00   1.4820E+02  0.000E+00  0.000E+00  0.000E+00  1.03987E+03  2.286E+00  5.529E+01  5.592E+00  1.072E-01
   1   13    8     7     2    1.4820E+02  1.7871E+00   1.4641E+02  0.000E+00  0.000E+00  0.000E+00  1.03478E+03  2.277E+00  5.525E+01  6.146E+00  9.692E-02
   1   13    7     7     3    1.4641E+02  1.6233E+00   1.4479E+02  0.000E+00  0.000E+00  0.000E+00  1.02969E+03  2.268E+00  5.521E+01  5.583E+00  9.692E-02
   1   13    6     8     1    1.4604E+02  4.3409E-01   1.4561E+02  0.000E+00  0.000E+00  0.000E+00  1.02466E+03  2.787E+00  4.041E+01  4.118E+00  3.513E-02
   1   13    5     8     2    1.4561E+02 -2.0779E-01   1.4581E+02  0.000E+00  0.000E+00  0.000E+00  1.01841E+03  2.786E+00  4.040E+01  4.117E+00 -1.682E-02
   1   13    4     8     3    1.4581E+02 -1.0249E+00   1.4684E+02  0.000E+00  0.000E+00  0.000E+00  1.01217E+03  2.791E+00  4.047E+01  4.124E+00 -8.284E-02
   1   13    3     8     4    1.4684E+02 -1.6916E+00   1.4853E+02  0.000E+00  0.000E+00  0.000E+00  1.00593E+03  2.800E+00  4.061E+01  4.138E+00 -1.363E-01
   1   13    2     8     5    1.4853E+02 -1.8365E+00   1.5037E+02  0.000E+00  0.000E+00  0.000E+00  9.99688E+02  2.813E+00  4.079E+01  4.156E+00 -1.473E-01
   1   13    1     8     6    1.5037E+02 -1.8101E+00   1.5218E+02  0.000E+00  0.000E+00  0.000E+00  9.94701E+02  2.826E+00  4.097E+01  2.505E+00 -2.408E-01



 UBDSV3 SAVING "           GW ET" ON UNIT  61 AT TIME STEP 15, STRESS PERIOD 12
 UBDSV3 SAVING "    UZF RECHARGE" ON UNIT  61 AT TIME STEP 15, STRESS PERIOD 12
 UBDSV3 SAVING " SURFACE LEAKAGE" ON UNIT  61 AT TIME STEP 15, STRESS PERIOD 12
 UBDSV3 SAVING "       HORT+DUNN" ON UNIT  61 AT TIME STEP 15, STRESS PERIOD 12
 UBDSV3 SAVING "  STORAGE CHANGE" ON UNIT  61 AT TIME STEP 15, STRESS PERIOD 12


UNSATURATED ZONE PACKAGE VOLUMETRIC BUDGET FOR  TIME STEP    15 STRESS PERIOD   12
  ------------------------------------------------------------------------------



     CUMULATIVE VOLUMES      L**3       RATES FOR THIS TIME STEP      L**3/T
     ------------------                 ------------------------

           IN:                                      IN:
           ---                                      ---
        INFILTRATION =  1536788574.2900          INFILTRATION =           8.4750

          OUT:                                     OUT:
          ----                                     ----
              UZF ET =  2105555774.7485                UZF ET =          29.5288
        UZF RECHARGE =   401293728.0871          UZF RECHARGE =          11.9225

            IN - OUT =  -970060928.5456              IN - OUT =         -32.9763

          STORAGE:                                 STORAGE:
          --------                                 --------
      STORAGE CHANGE =  -969842062.6413        STORAGE CHANGE =         -32.9722

 PERCENT DISCREPANCY IS DIFFERENCE BETWEEN IN-OUT MINUS CHANGE IN STORAGE
 DIVIDED BY THE AVERAGE OF IN AND OUT TIMES 100

 PERCENT DISCREPANCY =          -0.00     PERCENT DISCREPANCY =          -0.01






1
              HEAD IN LAYER 1 AT END OF TIME STEP 15 IN STRESS PERIOD 12
  ---------------------------------------------------------------------------

           1       2       3       4       5       6       7       8       9      10
 ...................................................................................
   1  1092.17 1087.67 6999.00 6999.00 6999.00 6999.00 6999.00 6999.00 6999.00 6999.00
   2  1087.57 1086.15 1078.41 6999.00 6999.00 1071.59 1071.12 1069.18 6999.00 6999.00
   3  6999.00 1074.79 1078.86 1074.27 1072.91 1070.17 1067.81 1065.89 6999.00 6999.00
   4  1067.70 1066.12 1065.10 1063.82 1066.33 1061.57 1059.96 1064.41 1062.29 6999.00
   5  1064.29 1059.60 1055.93 1053.80 1056.06 1060.62 1057.35 1060.62 1064.43 1065.64
   6  1060.48 1054.40 1049.90 1041.11 1044.13 1053.56 1054.16 1058.07 1057.88 1063.21
   7  1057.51 1049.34 1044.51 1032.96 1036.49 1046.28 1052.07 1052.73 1053.54 6999.00
   8  6999.00 1043.33 1039.81 1028.99 1032.33 1043.61 1047.48 1047.57 1049.92 6999.00
   9  6999.00 1037.39 1034.96 1025.16 1028.83 1040.16 1040.31 1041.72 1045.60 6999.00
  10  6999.00 1031.50 1030.36 1022.79 1025.16 1032.62 1036.57 1037.40 1041.92 1047.65
  11  6999.00 1023.95 1024.52 1024.41 1026.01 1029.19 1032.51 1033.97 1037.96 6999.00
  12  1006.75 1013.43 1015.92 1019.56 1022.40 1025.57 1028.56 1030.44 1035.30 6999.00
  13   995.42 1000.13 1006.33 1012.41 1018.46 1024.56 1029.40 1034.49 1035.84 6999.00
  14  6999.00 1012.23 1016.92 1021.52 1025.43 1028.47 1030.99 1034.61 1039.55 6999.00
  15  6999.00 6999.00 1027.48 1029.88 1032.90 1034.69 6999.00 6999.00 6999.00 6999.00
1
              HEAD IN LAYER 2 AT END OF TIME STEP 15 IN STRESS PERIOD 12
  ---------------------------------------------------------------------------

           1       2       3       4       5       6       7       8       9      10
 ...................................................................................
   1  1090.99 1087.11 6999.00 6999.00 6999.00 6999.00 6999.00 6999.00 6999.00 6999.00
   2  1087.34 1080.80 1075.52 6999.00 6999.00 1070.77 1070.35 1068.89 6999.00 6999.00
   3  6999.00 1072.79 1068.31 1064.58 1063.80 1064.38 1064.98 1065.47 6999.00 6999.00
   4  1066.78 1065.57 1062.60 1059.24 1057.82 1057.32 1058.56 1061.70 1061.89 6999.00
   5  1063.37 1059.13 1055.95 1053.98 1053.69 1053.96 1054.27 1056.09 1060.02 1063.89
   6  1059.62 1054.08 1050.46 1048.99 1049.21 1050.35 1051.58 1053.42 1057.02 1062.90
   7  1056.65 1049.09 1045.42 1044.27 1044.87 1046.36 1048.19 1050.63 1053.43 6999.00
   8  6999.00 1043.13 1040.62 1039.89 1040.65 1042.21 1043.97 1047.40 1049.64 6999.00
   9  6999.00 1037.06 1035.68 1035.52 1036.44 1038.03 1039.41 1041.66 1045.30 6999.00
  10  6999.00 1031.15 1030.94 1031.58 1032.74 1034.30 1035.52 1037.37 1041.61 1047.65
  11  6999.00 1024.13 1025.34 1027.93 1029.58 1031.29 1032.71 1034.21 1037.68 6999.00
  12  1007.04 1014.80 1019.95 1023.88 1026.58 1028.84 1030.50 1031.81 1035.24 6999.00
  13  1000.29 1007.78 1015.83 1021.17 1024.72 1027.62 1030.10 1032.68 1035.43 6999.00
  14  6999.00 1012.52 1017.47 1022.02 1025.70 1028.62 1030.91 1034.23 1036.90 6999.00
  15  6999.00 6999.00 1027.48 1029.88 1032.30 1034.09 6999.00 6999.00 6999.00 6999.00

 HEAD WILL BE SAVED ON UNIT   58 AT END OF TIME STEP   15, STRESS PERIOD   12
1
  VOLUMETRIC BUDGET FOR ENTIRE MODEL AT END OF TIME STEP   15, STRESS PERIOD  12
  ------------------------------------------------------------------------------

     CUMULATIVE VOLUMES      L**3       RATES FOR THIS TIME STEP      L**3/T
     ------------------                 ------------------------

           IN:                                      IN:
           ---                                      ---
             STORAGE     =   120786160.0000               STORAGE     =           0.9689
       CONSTANT HEAD     =           0.0000         CONSTANT HEAD     =           0.0000
               WELLS     =           0.0000                 WELLS     =           0.0000
     HEAD DEP BOUNDS     =     6520300.5000       HEAD DEP BOUNDS     =           0.2073
      STREAM LEAKAGE     =  1248569600.0000        STREAM LEAKAGE     =          40.1933
        UZF RECHARGE     =   401293664.0000          UZF RECHARGE     =          11.9225
               GW ET     =           0.0000                 GW ET     =           0.0000
     SURFACE LEAKAGE     =           0.0000       SURFACE LEAKAGE     =           0.0000

                TOTAL IN =  1777169792.0000                  TOTAL IN =          53.2920

          OUT:                                     OUT:
          ----                                     ----
             STORAGE     =   506451296.0000               STORAGE     =          24.0905
       CONSTANT HEAD     =           0.0000         CONSTANT HEAD     =           0.0000
               WELLS     =   394199936.0000                 WELLS     =           0.0000
     HEAD DEP BOUNDS     =     8921313.0000       HEAD DEP BOUNDS     =           0.2821
      STREAM LEAKAGE     =   250421904.0000        STREAM LEAKAGE     =           7.3693
        UZF RECHARGE     =           0.0000          UZF RECHARGE     =           0.0000
               GW ET     =   617163584.0000                 GW ET     =          21.5500
     SURFACE LEAKAGE     =           0.0000       SURFACE LEAKAGE     =           0.0000

               TOTAL OUT =  1777158144.0000                 TOTAL OUT =          53.2918

                IN - OUT =       11648.0000                  IN - OUT =       1.8311E-04

     PERCENT DISCREPANCY =           0.00         PERCENT DISCREPANCY =           0.00






         TIME SUMMARY AT END OF TIME STEP   15 IN STRESS PERIOD   12
                    SECONDS     MINUTES      HOURS       DAYS        YEARS
                    -----------------------------------------------------------
   TIME STEP LENGTH 3.14103E+05  5235.0      87.251      3.6354     9.95332E-03
 STRESS PERIOD TIME 2.62800E+06  43800.      730.00      30.417     8.32763E-02
         TOTAL TIME 3.15360E+07 5.25600E+05  8760.0      365.00     0.99932    
1


 Run end date and time (yyyy/mm/dd hh:mm:ss): 2021/11/04 11:31:54
 Elapsed run time: 2.200 Seconds

