1
 SUMMARY VOLUMETRIC BUDGET FOR GSFLOW 
 DATE: 11 24 1983              CUMULATIVE TIME STEP:    1150
 MODFLOW STRESS PERIOD      1     CURRENT TIME STEP:       7     ITERATIONS:       6

 -----------------------------------------------------------------------------------

   CUMULATIVE VOLUMES               L**3   RATES FOR THIS TIME STEP           L**3/T
   ------------------                      ------------------------

                                     IN                                         IN
                                     --                                         --
        PRECIPITATION =        1.6154D+08          PRECIPITATION =        4.5230D+07
           STREAMFLOW =                               STREAMFLOW =                  
     GW BOUNDARY FLOW =                         GW BOUNDARY FLOW =                  


                                    OUT                                        OUT
                                    ---                                        ---
   EVAPOTRANSPIRATION =        2150534.52     EVAPOTRANSPIRATION =         478900.10
           STREAMFLOW =        2.9240D+07             STREAMFLOW =        4453044.50
     GW BOUNDARY FLOW =                         GW BOUNDARY FLOW =                  

   INFLOWS - OUTFLOWS =        1.3015D+08     INFLOWS - OUTFLOWS =        4.0298D+07
             --------                                   --------

 TOTAL STORAGE CHANGE =        1.2972D+08         STORAGE CHANGE =        4.0262D+07
       --------------                             --------------
         LAND SURFACE =        1.1901D+08           LAND SURFACE =        3.3640D+07
            SOIL ZONE =        -682909.50              SOIL ZONE =         -66031.67
     UNSATURATED ZONE =         575470.44       UNSATURATED ZONE =          55463.57
       SATURATED ZONE =       -1381302.89         SATURATED ZONE =        -167109.17
                LAKES =        1.2200D+07                  LAKES =        6800183.50

 OVERALL BUDGET ERROR =         422154.80           BUDGET ERROR =          36236.24


  PERCENT DISCREPANCY =              0.26    PERCENT DISCREPANCY =              0.08



 Number of time steps:      7;  Number of non-convergence:   0
 MF iterations:            32;  SZ iterations:              32
 Average MF iterations:  4.57;  Average SZ iterations:    4.57
 Maximum MF iterations:     6;  Maximum SZ iterations:       6

MF iteration distribution:      0    0    2    1    2    2    0    0    0    0
                                0    0    0    0    0    0    0    0    0    0
                                0    0    0    0    0    0    0    0    0    0
                                0    0    0    0    0    0    0    0    0    0
                                0    0    0    0    0    0    0    0    0    0
                                0    0    0    0    0    0    0    0    0    0
                                0    0    0    0    0    0    0    0    0    0
                                0    0    0    0    0    0    0    0    0    0

SZ computation distribution:    0    0    2    1    2    2    0    0    0    0
                                0    0    0    0    0    0    0    0    0    0
                                0    0    0    0    0    0    0    0    0    0
                                0    0    0    0    0    0    0    0    0    0
                                0    0    0    0    0    0    0    0    0    0
                                0    0    0    0    0    0    0    0    0    0
                                0    0    0    0    0    0    0    0    0    0
                                0    0    0    0    0    0    0    0    0    0

