1
 SUMMARY VOLUMETRIC BUDGET FOR GSFLOW 
 DATE: 11 10 1983              CUMULATIVE TIME STEP:    1136
 MODFLOW STRESS PERIOD      1     CURRENT TIME STEP:       7     ITERATIONS:       9

 -----------------------------------------------------------------------------------

   CUMULATIVE VOLUMES               L**3   RATES FOR THIS TIME STEP           L**3/T
   ------------------                      ------------------------

                                     IN                                         IN
                                     --                                         --
        PRECIPITATION =        1.0338D+08          PRECIPITATION =        8.7230D+07
           STREAMFLOW =                               STREAMFLOW =                  
     GW BOUNDARY FLOW =                         GW BOUNDARY FLOW =                  


                                    OUT                                        OUT
                                    ---                                        ---
   EVAPOTRANSPIRATION =        1.3689D+07     EVAPOTRANSPIRATION =         650178.12
           STREAMFLOW =        1.7081D+07             STREAMFLOW =        2997192.50
     GW BOUNDARY FLOW =                         GW BOUNDARY FLOW =                  

   INFLOWS - OUTFLOWS =        7.2614D+07     INFLOWS - OUTFLOWS =        8.3582D+07
             --------                                   --------

 TOTAL STORAGE CHANGE =        7.2232D+07         STORAGE CHANGE =        8.3270D+07
       --------------                             --------------
         LAND SURFACE =        4.9517D+07           LAND SURFACE =        4.6419D+07
            SOIL ZONE =        5605593.93              SOIL ZONE =        7551369.59
     UNSATURATED ZONE =         410846.98       UNSATURATED ZONE =         191843.98
       SATURATED ZONE =        -604167.11         SATURATED ZONE =         765398.88
                LAKES =        1.7302D+07                  LAKES =        2.8342D+07

 OVERALL BUDGET ERROR =         382631.39           BUDGET ERROR =         312616.93


  PERCENT DISCREPANCY =              0.37    PERCENT DISCREPANCY =              0.36



