1
 SUMMARY VOLUMETRIC BUDGET FOR GSFLOW 
 DATE: 12 01 1983              CUMULATIVE TIME STEP:    1157
 MODFLOW STRESS PERIOD      1     CURRENT TIME STEP:       7     ITERATIONS:      11

 -----------------------------------------------------------------------------------

   CUMULATIVE VOLUMES               L**3   RATES FOR THIS TIME STEP           L**3/T
   ------------------                      ------------------------

                                     IN                                         IN
                                     --                                         --
        PRECIPITATION =        2.5846D+07          PRECIPITATION =                  
           STREAMFLOW =                               STREAMFLOW =                  
     GW BOUNDARY FLOW =                         GW BOUNDARY FLOW =                  


                                    OUT                                        OUT
                                    ---                                        ---
   EVAPOTRANSPIRATION =        3716239.82     EVAPOTRANSPIRATION =        1040481.54
           STREAMFLOW =        3.2981D+07             STREAMFLOW =        5040038.00
     GW BOUNDARY FLOW =                         GW BOUNDARY FLOW =                  

   INFLOWS - OUTFLOWS =       -1.0851D+07     INFLOWS - OUTFLOWS =       -6080519.54
             --------                                   --------

 TOTAL STORAGE CHANGE =       -1.0983D+07         STORAGE CHANGE =       -5942786.59
       --------------                             --------------
         LAND SURFACE =        1.7426D+07           LAND SURFACE =        -529744.06
            SOIL ZONE =        -778360.38              SOIL ZONE =         -94017.12
     UNSATURATED ZONE =         191981.24       UNSATURATED ZONE =         -19621.95
       SATURATED ZONE =       -1225719.31         SATURATED ZONE =        -136164.47
                LAKES =       -2.6598D+07                  LAKES =       -5163239.00

 OVERALL BUDGET ERROR =         132291.03           BUDGET ERROR =        -137732.96


  PERCENT DISCREPANCY =              0.36    PERCENT DISCREPANCY =             -2.29



