1
 SUMMARY VOLUMETRIC BUDGET FOR GSFLOW 
 DATE: 12 08 1983              CUMULATIVE TIME STEP:    1164
 MODFLOW STRESS PERIOD      1     CURRENT TIME STEP:       7     ITERATIONS:      36

 -----------------------------------------------------------------------------------

   CUMULATIVE VOLUMES               L**3   RATES FOR THIS TIME STEP           L**3/T
   ------------------                      ------------------------

                                     IN                                         IN
                                     --                                         --
        PRECIPITATION =        7.3558D+07          PRECIPITATION =        9594484.95
           STREAMFLOW =                               STREAMFLOW =                  
     GW BOUNDARY FLOW =                         GW BOUNDARY FLOW =                  


                                    OUT                                        OUT
                                    ---                                        ---
   EVAPOTRANSPIRATION =        3198857.26     EVAPOTRANSPIRATION =        1067891.45
           STREAMFLOW =        3.5846D+07             STREAMFLOW =        5236643.00
     GW BOUNDARY FLOW =                         GW BOUNDARY FLOW =                  

   INFLOWS - OUTFLOWS =        3.4513D+07     INFLOWS - OUTFLOWS =        3289950.50
             --------                                   --------

 TOTAL STORAGE CHANGE =        3.4236D+07         STORAGE CHANGE =        3241818.27
       --------------                             --------------
         LAND SURFACE =        4.9421D+07           LAND SURFACE =        5505108.62
            SOIL ZONE =        1142602.58              SOIL ZONE =         472747.60
     UNSATURATED ZONE =         179256.69       UNSATURATED ZONE =         -86894.68
       SATURATED ZONE =        -770020.27         SATURATED ZONE =          57004.48
                LAKES =       -1.5737D+07                  LAKES =       -2706147.75

 OVERALL BUDGET ERROR =         276603.97           BUDGET ERROR =          48132.23


  PERCENT DISCREPANCY =              0.38    PERCENT DISCREPANCY =              0.50



1
 SUMMARY VOLUMETRIC BUDGET FOR GSFLOW 
 DATE: 12 15 1983              CUMULATIVE TIME STEP:    1171
 MODFLOW STRESS PERIOD      1     CURRENT TIME STEP:      14     ITERATIONS:       4

 -----------------------------------------------------------------------------------

   CUMULATIVE VOLUMES               L**3   RATES FOR THIS TIME STEP           L**3/T
   ------------------                      ------------------------

                                     IN                                         IN
                                     --                                         --
        PRECIPITATION =        1.5351D+08          PRECIPITATION =                  
           STREAMFLOW =                               STREAMFLOW =                  
     GW BOUNDARY FLOW =                         GW BOUNDARY FLOW =                  


                                    OUT                                        OUT
                                    ---                                        ---
   EVAPOTRANSPIRATION =        8205889.01     EVAPOTRANSPIRATION =        1488294.59
           STREAMFLOW =        7.2942D+07             STREAMFLOW =        5407177.50
     GW BOUNDARY FLOW =                         GW BOUNDARY FLOW =                  

   INFLOWS - OUTFLOWS =        7.2364D+07     INFLOWS - OUTFLOWS =       -6895472.09
             --------                                   --------

 TOTAL STORAGE CHANGE =        7.1927D+07         STORAGE CHANGE =       -6916208.58
       --------------                             --------------
         LAND SURFACE =        1.0186D+08           LAND SURFACE =        -868160.84
            SOIL ZONE =        1715610.23              SOIL ZONE =        -131041.91
     UNSATURATED ZONE =         678876.35       UNSATURATED ZONE =          29402.22
       SATURATED ZONE =       -1639356.20         SATURATED ZONE =        -179224.05
                LAKES =       -3.0691D+07                  LAKES =       -5767184.00

 OVERALL BUDGET ERROR =         436618.22           BUDGET ERROR =          20736.49


  PERCENT DISCREPANCY =              0.28    PERCENT DISCREPANCY =              0.30



1
 SUMMARY VOLUMETRIC BUDGET FOR GSFLOW 
 DATE: 12 22 1983              CUMULATIVE TIME STEP:    1178
 MODFLOW STRESS PERIOD      1     CURRENT TIME STEP:      21     ITERATIONS:      22

 -----------------------------------------------------------------------------------

   CUMULATIVE VOLUMES               L**3   RATES FOR THIS TIME STEP           L**3/T
   ------------------                      ------------------------

                                     IN                                         IN
                                     --                                         --
        PRECIPITATION =        1.7590D+08          PRECIPITATION =        6396323.79
           STREAMFLOW =                               STREAMFLOW =                  
     GW BOUNDARY FLOW =                         GW BOUNDARY FLOW =                  


                                    OUT                                        OUT
                                    ---                                        ---
   EVAPOTRANSPIRATION =        1.3542D+07     EVAPOTRANSPIRATION =          69337.99
           STREAMFLOW =        1.1182D+08             STREAMFLOW =        5480523.50
     GW BOUNDARY FLOW =                         GW BOUNDARY FLOW =                  

   INFLOWS - OUTFLOWS =        5.0534D+07     INFLOWS - OUTFLOWS =         846462.29
             --------                                   --------

 TOTAL STORAGE CHANGE =        4.9724D+07         STORAGE CHANGE =         814938.40
       --------------                             --------------
         LAND SURFACE =        1.1120D+08           LAND SURFACE =        4730617.27
            SOIL ZONE =        2448898.69              SOIL ZONE =        -139996.71
     UNSATURATED ZONE =        1147129.73       UNSATURATED ZONE =          16285.40
       SATURATED ZONE =       -2578645.45         SATURATED ZONE =        -152866.81
                LAKES =       -6.2498D+07                  LAKES =       -3639100.75

 OVERALL BUDGET ERROR =         810627.76           BUDGET ERROR =          31523.89


  PERCENT DISCREPANCY =              0.46    PERCENT DISCREPANCY =              0.49



1
 SUMMARY VOLUMETRIC BUDGET FOR GSFLOW 
 DATE: 12 29 1983              CUMULATIVE TIME STEP:    1185
 MODFLOW STRESS PERIOD      1     CURRENT TIME STEP:      28     ITERATIONS:       3

 -----------------------------------------------------------------------------------

   CUMULATIVE VOLUMES               L**3   RATES FOR THIS TIME STEP           L**3/T
   ------------------                      ------------------------

                                     IN                                         IN
                                     --                                         --
        PRECIPITATION =        3.5500D+08          PRECIPITATION =        6396323.79
           STREAMFLOW =                               STREAMFLOW =                  
     GW BOUNDARY FLOW =                         GW BOUNDARY FLOW =                  


                                    OUT                                        OUT
                                    ---                                        ---
   EVAPOTRANSPIRATION =        1.6014D+07     EVAPOTRANSPIRATION =         286204.10
           STREAMFLOW =        1.5117D+08             STREAMFLOW =        5676565.00
     GW BOUNDARY FLOW =                         GW BOUNDARY FLOW =                  

   INFLOWS - OUTFLOWS =        1.8781D+08     INFLOWS - OUTFLOWS =         433554.69
             --------                                   --------

 TOTAL STORAGE CHANGE =        1.8673D+08         STORAGE CHANGE =         407307.24
       --------------                             --------------
         LAND SURFACE =        2.3808D+08           LAND SURFACE =        4519035.52
            SOIL ZONE =        3189909.41              SOIL ZONE =        -130245.89
     UNSATURATED ZONE =        1467261.31       UNSATURATED ZONE =          35292.71
       SATURATED ZONE =       -3224560.35         SATURATED ZONE =        -174744.61
                LAKES =       -5.2777D+07                  LAKES =       -3842030.50

 OVERALL BUDGET ERROR =        1078561.07           BUDGET ERROR =          26247.45


  PERCENT DISCREPANCY =              0.30    PERCENT DISCREPANCY =              0.41



1
 SUMMARY VOLUMETRIC BUDGET FOR GSFLOW 
 DATE: 01 05 1984              CUMULATIVE TIME STEP:    1192
 MODFLOW STRESS PERIOD      1     CURRENT TIME STEP:      35     ITERATIONS:      14

 -----------------------------------------------------------------------------------

   CUMULATIVE VOLUMES               L**3   RATES FOR THIS TIME STEP           L**3/T
   ------------------                      ------------------------

                                     IN                                         IN
                                     --                                         --
        PRECIPITATION =        3.7719D+08          PRECIPITATION =                  
           STREAMFLOW =                               STREAMFLOW =                  
     GW BOUNDARY FLOW =                         GW BOUNDARY FLOW =                  


                                    OUT                                        OUT
                                    ---                                        ---
   EVAPOTRANSPIRATION =        2.5508D+07     EVAPOTRANSPIRATION =        1974536.45
           STREAMFLOW =        1.9030D+08             STREAMFLOW =        5407227.00
     GW BOUNDARY FLOW =                         GW BOUNDARY FLOW =                  

   INFLOWS - OUTFLOWS =        1.6138D+08     INFLOWS - OUTFLOWS =       -7381763.45
             --------                                   --------

 TOTAL STORAGE CHANGE =        1.5986D+08         STORAGE CHANGE =       -7415305.47
       --------------                             --------------
         LAND SURFACE =        2.4136D+08           LAND SURFACE =       -1752140.32
            SOIL ZONE =        4233384.32              SOIL ZONE =         145942.57
     UNSATURATED ZONE =        2023679.58       UNSATURATED ZONE =          41101.17
       SATURATED ZONE =       -4063510.27         SATURATED ZONE =        -138542.89
                LAKES =       -8.3700D+07                  LAKES =       -5711666.00

 OVERALL BUDGET ERROR =        1517684.96           BUDGET ERROR =          33542.02


  PERCENT DISCREPANCY =              0.40    PERCENT DISCREPANCY =              0.45



1
 SUMMARY VOLUMETRIC BUDGET FOR GSFLOW 
 DATE: 01 12 1984              CUMULATIVE TIME STEP:    1199
 MODFLOW STRESS PERIOD      1     CURRENT TIME STEP:      42     ITERATIONS:       9

 -----------------------------------------------------------------------------------

   CUMULATIVE VOLUMES               L**3   RATES FOR THIS TIME STEP           L**3/T
   ------------------                      ------------------------

                                     IN                                         IN
                                     --                                         --
        PRECIPITATION =        3.7719D+08          PRECIPITATION =                  
           STREAMFLOW =                               STREAMFLOW =                  
     GW BOUNDARY FLOW =                         GW BOUNDARY FLOW =                  


                                    OUT                                        OUT
                                    ---                                        ---
   EVAPOTRANSPIRATION =        3.6278D+07     EVAPOTRANSPIRATION =         798648.99
           STREAMFLOW =        2.2725D+08             STREAMFLOW =        5186898.50
     GW BOUNDARY FLOW =                         GW BOUNDARY FLOW =                  

   INFLOWS - OUTFLOWS =        1.1366D+08     INFLOWS - OUTFLOWS =       -5985547.49
             --------                                   --------

 TOTAL STORAGE CHANGE =        1.1195D+08         STORAGE CHANGE =       -6008138.22
       --------------                             --------------
         LAND SURFACE =        2.3090D+08           LAND SURFACE =        -454357.72
            SOIL ZONE =        4938066.13              SOIL ZONE =        -185372.52
     UNSATURATED ZONE =        2358510.14       UNSATURATED ZONE =          12284.33
       SATURATED ZONE =       -4817280.02         SATURATED ZONE =        -142249.81
                LAKES =       -1.2143D+08                  LAKES =       -5238442.50

 OVERALL BUDGET ERROR =        1714462.01           BUDGET ERROR =          22590.73


  PERCENT DISCREPANCY =              0.46    PERCENT DISCREPANCY =              0.38



1
 SUMMARY VOLUMETRIC BUDGET FOR GSFLOW 
 DATE: 01 19 1984              CUMULATIVE TIME STEP:    1206
 MODFLOW STRESS PERIOD      1     CURRENT TIME STEP:      49     ITERATIONS:      17

 -----------------------------------------------------------------------------------

   CUMULATIVE VOLUMES               L**3   RATES FOR THIS TIME STEP           L**3/T
   ------------------                      ------------------------

                                     IN                                         IN
                                     --                                         --
        PRECIPITATION =        4.0419D+08          PRECIPITATION =                  
           STREAMFLOW =                               STREAMFLOW =                  
     GW BOUNDARY FLOW =                         GW BOUNDARY FLOW =                  


                                    OUT                                        OUT
                                    ---                                        ---
   EVAPOTRANSPIRATION =        3.9129D+07     EVAPOTRANSPIRATION =         842340.05
           STREAMFLOW =        2.6253D+08             STREAMFLOW =        4966639.50
     GW BOUNDARY FLOW =                         GW BOUNDARY FLOW =                  

   INFLOWS - OUTFLOWS =        1.0254D+08     INFLOWS - OUTFLOWS =       -5808979.55
             --------                                   --------

 TOTAL STORAGE CHANGE =        1.0070D+08         STORAGE CHANGE =       -5815535.43
       --------------                             --------------
         LAND SURFACE =        2.4907D+08           LAND SURFACE =        -512933.76
            SOIL ZONE =        4129289.67              SOIL ZONE =         -87952.91
     UNSATURATED ZONE =        2330137.98       UNSATURATED ZONE =         -33946.28
       SATURATED ZONE =       -5826800.73         SATURATED ZONE =        -132476.48
                LAKES =       -1.4900D+08                  LAKES =       -5048226.00

 OVERALL BUDGET ERROR =        1834426.59           BUDGET ERROR =           6555.88


  PERCENT DISCREPANCY =              0.45    PERCENT DISCREPANCY =              0.11



1
 SUMMARY VOLUMETRIC BUDGET FOR GSFLOW 
 DATE: 01 26 1984              CUMULATIVE TIME STEP:    1213
 MODFLOW STRESS PERIOD      1     CURRENT TIME STEP:      56     ITERATIONS:       3

 -----------------------------------------------------------------------------------

   CUMULATIVE VOLUMES               L**3   RATES FOR THIS TIME STEP           L**3/T
   ------------------                      ------------------------

                                     IN                                         IN
                                     --                                         --
        PRECIPITATION =        4.0719D+08          PRECIPITATION =                  
           STREAMFLOW =                               STREAMFLOW =                  
     GW BOUNDARY FLOW =                         GW BOUNDARY FLOW =                  


                                    OUT                                        OUT
                                    ---                                        ---
   EVAPOTRANSPIRATION =        4.7197D+07     EVAPOTRANSPIRATION =        1806073.30
           STREAMFLOW =        2.9715D+08             STREAMFLOW =        4893216.50
     GW BOUNDARY FLOW =                         GW BOUNDARY FLOW =                  

   INFLOWS - OUTFLOWS =        6.2849D+07     INFLOWS - OUTFLOWS =       -6699289.80
             --------                                   --------

 TOTAL STORAGE CHANGE =        6.0926D+07         STORAGE CHANGE =       -6714680.36
       --------------                             --------------
         LAND SURFACE =        2.4654D+08           LAND SURFACE =       -1135154.22
            SOIL ZONE =        3654511.38              SOIL ZONE =         -51807.77
     UNSATURATED ZONE =        2089543.41       UNSATURATED ZONE =         -35799.12
       SATURATED ZONE =       -6830322.69         SATURATED ZONE =        -152391.75
                LAKES =       -1.8453D+08                  LAKES =       -5339527.50

 OVERALL BUDGET ERROR =        1922215.63           BUDGET ERROR =          15390.56


  PERCENT DISCREPANCY =              0.47    PERCENT DISCREPANCY =              0.23



 Number of time steps:     60;  Number of non-convergence:   0
 MF iterations:           502;  SZ iterations:             503
 Average MF iterations:  8.37;  Average SZ iterations:    8.38
 Maximum MF iterations:    36;  Maximum SZ iterations:      36

MF iteration distribution:      0    0   13    8    4    5    4    1    9    1
                                1    3    2    1    0    3    1    0    0    1
                                0    1    0    1    0    0    0    0    0    0
                                0    0    0    0    0    1    0    0    0    0
                                0    0    0    0    0    0    0    0    0    0
                                0    0    0    0    0    0    0    0    0    0
                                0    0    0    0    0    0    0    0    0    0
                                0    0    0    0    0    0    0    0    0    0

SZ computation distribution:    0    0   13    8    4    4    5    1    9    1
                                1    3    2    1    0    3    1    0    0    1
                                0    1    0    1    0    0    0    0    0    0
                                0    0    0    0    0    1    0    0    0    0
                                0    0    0    0    0    0    0    0    0    0
                                0    0    0    0    0    0    0    0    0    0
                                0    0    0    0    0    0    0    0    0    0
                                0    0    0    0    0    0    0    0    0    0

