1
 SUMMARY VOLUMETRIC BUDGET FOR GSFLOW 
 DATE: 09 08 1983              CUMULATIVE TIME STEP:    1073
 MODFLOW STRESS PERIOD      1     CURRENT TIME STEP:       7     ITERATIONS:      25

 -----------------------------------------------------------------------------------

   CUMULATIVE VOLUMES               L**3   RATES FOR THIS TIME STEP           L**3/T
   ------------------                      ------------------------

                                     IN                                         IN
                                     --                                         --
        PRECIPITATION =                            PRECIPITATION =                  
           STREAMFLOW =                               STREAMFLOW =                  
     GW BOUNDARY FLOW =                         GW BOUNDARY FLOW =                  


                                    OUT                                        OUT
                                    ---                                        ---
   EVAPOTRANSPIRATION =        9432049.78     EVAPOTRANSPIRATION =        1264168.07
           STREAMFLOW =        9762283.25             STREAMFLOW =        1401931.88
     GW BOUNDARY FLOW =                         GW BOUNDARY FLOW =                  

   INFLOWS - OUTFLOWS =       -1.9194D+07     INFLOWS - OUTFLOWS =       -2666099.95
             --------                                   --------

 TOTAL STORAGE CHANGE =       -3.1570D+07         STORAGE CHANGE =       -4599871.55
       --------------                             --------------
         LAND SURFACE =       -1718241.71           LAND SURFACE =        -186760.09
            SOIL ZONE =       -7461110.05              SOIL ZONE =        -989925.48
     UNSATURATED ZONE =        -887578.09       UNSATURATED ZONE =        -131861.67
       SATURATED ZONE =       -1717119.48         SATURATED ZONE =        -251469.81
                LAKES =       -1.9786D+07                  LAKES =       -3039854.50

 OVERALL BUDGET ERROR =        1.2376D+07           BUDGET ERROR =        1933771.60

  ***WARNING, CUMULATIVE VOLUME OFF > 5%
  ***CAUTION, FLUX RATES OFF > 10%

  PERCENT DISCREPANCY =             48.76    PERCENT DISCREPANCY =             53.23



