1
 SUMMARY VOLUMETRIC BUDGET FOR GSFLOW 
 DATE: 09 22 1983              CUMULATIVE TIME STEP:    1087
 MODFLOW STRESS PERIOD      1     CURRENT TIME STEP:       7     ITERATIONS:      49

 -----------------------------------------------------------------------------------

   CUMULATIVE VOLUMES               L**3   RATES FOR THIS TIME STEP           L**3/T
   ------------------                      ------------------------

                                     IN                                         IN
                                     --                                         --
        PRECIPITATION =        1.8004D+07          PRECIPITATION =        1.8004D+07
           STREAMFLOW =                               STREAMFLOW =                  
     GW BOUNDARY FLOW =                         GW BOUNDARY FLOW =                  


                                    OUT                                        OUT
                                    ---                                        ---
   EVAPOTRANSPIRATION =        1.5510D+07     EVAPOTRANSPIRATION =        1948590.88
           STREAMFLOW =        1.2560D+07             STREAMFLOW =        2349880.75
     GW BOUNDARY FLOW =                         GW BOUNDARY FLOW =                  

   INFLOWS - OUTFLOWS =       -1.0066D+07     INFLOWS - OUTFLOWS =        1.3705D+07
             --------                                   --------

 TOTAL STORAGE CHANGE =       -1.0077D+07         STORAGE CHANGE =        1.3709D+07
       --------------                             --------------
         LAND SURFACE =        -249764.21           LAND SURFACE =         227689.69
            SOIL ZONE =        7230275.44              SOIL ZONE =        1.0719D+07
     UNSATURATED ZONE =        -573172.30       UNSATURATED ZONE =         -95997.50
       SATURATED ZONE =       -1169208.30         SATURATED ZONE =         178633.80
                LAKES =       -1.5316D+07                  LAKES =        2679386.50

 OVERALL BUDGET ERROR =          11455.56           BUDGET ERROR =          -3251.61


  PERCENT DISCREPANCY =              0.04    PERCENT DISCREPANCY =             -0.02



 Number of time steps:      7;  Number of non-convergence:   0
 MF iterations:           128;  SZ iterations:             128
 Average MF iterations: 18.29;  Average SZ iterations:   18.29
 Maximum MF iterations:    49;  Maximum SZ iterations:      49

MF iteration distribution:      0    0    0    0    0    0    0    0    0    0
                                1    0    3    1    1    0    0    0    0    0
                                0    0    0    0    0    0    0    0    0    0
                                0    0    0    0    0    0    0    0    0    0
                                0    0    0    0    0    0    0    0    1    0
                                0    0    0    0    0    0    0    0    0    0
                                0    0    0    0    0    0    0    0    0    0
                                0    0    0    0    0    0    0    0    0    0

SZ computation distribution:    0    0    0    0    0    0    0    0    0    0
                                1    0    3    1    1    0    0    0    0    0
                                0    0    0    0    0    0    0    0    0    0
                                0    0    0    0    0    0    0    0    0    0
                                0    0    0    0    0    0    0    0    1    0
                                0    0    0    0    0    0    0    0    0    0
                                0    0    0    0    0    0    0    0    0    0
                                0    0    0    0    0    0    0    0    0    0

