1
 SUMMARY VOLUMETRIC BUDGET FOR GSFLOW 
 DATE: 11 17 1983              CUMULATIVE TIME STEP:    1143
 MODFLOW STRESS PERIOD      1     CURRENT TIME STEP:       7     ITERATIONS:      10

 -----------------------------------------------------------------------------------

   CUMULATIVE VOLUMES               L**3   RATES FOR THIS TIME STEP           L**3/T
   ------------------                      ------------------------

                                     IN                                         IN
                                     --                                         --
        PRECIPITATION =        2.0031D+08          PRECIPITATION =        6.1384D+07
           STREAMFLOW =                               STREAMFLOW =                  
     GW BOUNDARY FLOW =                         GW BOUNDARY FLOW =                  


                                    OUT                                        OUT
                                    ---                                        ---
   EVAPOTRANSPIRATION =        5072029.00     EVAPOTRANSPIRATION =         579833.70
           STREAMFLOW =        2.1368D+07             STREAMFLOW =        3181969.25
     GW BOUNDARY FLOW =                         GW BOUNDARY FLOW =                  

   INFLOWS - OUTFLOWS =        1.7387D+08     INFLOWS - OUTFLOWS =        5.7622D+07
             --------                                   --------

 TOTAL STORAGE CHANGE =        1.7288D+08         STORAGE CHANGE =        5.7368D+07
       --------------                             --------------
         LAND SURFACE =        1.3829D+08           LAND SURFACE =        4.4149D+07
            SOIL ZONE =        3951037.32              SOIL ZONE =         604790.31
     UNSATURATED ZONE =         848567.69       UNSATURATED ZONE =         131459.61
       SATURATED ZONE =       -1663147.30         SATURATED ZONE =        -110377.15
                LAKES =        3.1455D+07                  LAKES =        1.2593D+07

 OVERALL BUDGET ERROR =         981511.88           BUDGET ERROR =         253766.05


  PERCENT DISCREPANCY =              0.49    PERCENT DISCREPANCY =              0.41



