1
 SUMMARY VOLUMETRIC BUDGET FOR GSFLOW 
 DATE: 10 07 1980              CUMULATIVE TIME STEP:       7
 MODFLOW STRESS PERIOD      1     CURRENT TIME STEP:       7     ITERATIONS:      12

 -----------------------------------------------------------------------------------

   CUMULATIVE VOLUMES               L**3   RATES FOR THIS TIME STEP           L**3/T
   ------------------                      ------------------------

                                     IN                                         IN
                                     --                                         --
        PRECIPITATION =                            PRECIPITATION =                  
           STREAMFLOW =                               STREAMFLOW =                  
     GW BOUNDARY FLOW =                         GW BOUNDARY FLOW =                  


                                    OUT                                        OUT
                                    ---                                        ---
   EVAPOTRANSPIRATION =        1.5448D+07     EVAPOTRANSPIRATION =        1422148.34
           STREAMFLOW =        1672059.45             STREAMFLOW =         183556.67
     GW BOUNDARY FLOW =                         GW BOUNDARY FLOW =                  

   INFLOWS - OUTFLOWS =       -1.7120D+07     INFLOWS - OUTFLOWS =       -1605705.02
             --------                                   --------

 TOTAL STORAGE CHANGE =       -1.7088D+07         STORAGE CHANGE =       -1604548.44
       --------------                             --------------
         LAND SURFACE =                             LAND SURFACE =                  
            SOIL ZONE =       -5383474.91              SOIL ZONE =        -221232.08
     UNSATURATED ZONE =       -1429527.28       UNSATURATED ZONE =         -62733.55
       SATURATED ZONE =       -1314802.03         SATURATED ZONE =        -268582.94
                LAKES =       -8959976.00                  LAKES =       -1051999.88

 OVERALL BUDGET ERROR =         -32146.91           BUDGET ERROR =          -1156.57


  PERCENT DISCREPANCY =             -0.19    PERCENT DISCREPANCY =             -0.07



1
 SUMMARY VOLUMETRIC BUDGET FOR GSFLOW 
 DATE: 10 14 1980              CUMULATIVE TIME STEP:      14
 MODFLOW STRESS PERIOD      1     CURRENT TIME STEP:      14     ITERATIONS:       3

 -----------------------------------------------------------------------------------

   CUMULATIVE VOLUMES               L**3   RATES FOR THIS TIME STEP           L**3/T
   ------------------                      ------------------------

                                     IN                                         IN
                                     --                                         --
        PRECIPITATION =        1.3442D+07          PRECIPITATION =        6721104.51
           STREAMFLOW =                               STREAMFLOW =                  
     GW BOUNDARY FLOW =                         GW BOUNDARY FLOW =                  


                                    OUT                                        OUT
                                    ---                                        ---
   EVAPOTRANSPIRATION =        2.2948D+07     EVAPOTRANSPIRATION =         498985.73
           STREAMFLOW =        2279257.93             STREAMFLOW =          34825.47
     GW BOUNDARY FLOW =                         GW BOUNDARY FLOW =                  

   INFLOWS - OUTFLOWS =       -1.1786D+07     INFLOWS - OUTFLOWS =        6187293.31
             --------                                   --------

 TOTAL STORAGE CHANGE =       -1.1896D+07         STORAGE CHANGE =        6115827.60
       --------------                             --------------
         LAND SURFACE =        2552191.86           LAND SURFACE =        1584944.65
            SOIL ZONE =         412694.01              SOIL ZONE =        2951379.96
     UNSATURATED ZONE =       -1864707.35       UNSATURATED ZONE =         -57186.67
       SATURATED ZONE =       -2747812.33         SATURATED ZONE =        -121510.22
                LAKES =       -1.0248D+07                  LAKES =        1758199.88

 OVERALL BUDGET ERROR =         110295.93           BUDGET ERROR =          71465.71


  PERCENT DISCREPANCY =              0.44    PERCENT DISCREPANCY =              1.07



1
 SUMMARY VOLUMETRIC BUDGET FOR GSFLOW 
 DATE: 10 21 1980              CUMULATIVE TIME STEP:      21
 MODFLOW STRESS PERIOD      1     CURRENT TIME STEP:      21     ITERATIONS:       5

 -----------------------------------------------------------------------------------

   CUMULATIVE VOLUMES               L**3   RATES FOR THIS TIME STEP           L**3/T
   ------------------                      ------------------------

                                     IN                                         IN
                                     --                                         --
        PRECIPITATION =        1.6803D+07          PRECIPITATION =                  
           STREAMFLOW =                               STREAMFLOW =                  
     GW BOUNDARY FLOW =                         GW BOUNDARY FLOW =                  


                                    OUT                                        OUT
                                    ---                                        ---
   EVAPOTRANSPIRATION =        2.9668D+07     EVAPOTRANSPIRATION =        1424552.64
           STREAMFLOW =        3039640.24             STREAMFLOW =         364363.34
     GW BOUNDARY FLOW =                         GW BOUNDARY FLOW =                  

   INFLOWS - OUTFLOWS =       -1.5905D+07     INFLOWS - OUTFLOWS =       -1788915.98
             --------                                   --------

 TOTAL STORAGE CHANGE =       -1.6038D+07         STORAGE CHANGE =       -1788229.07
       --------------                             --------------
         LAND SURFACE =         582235.13           LAND SURFACE =        -191386.43
            SOIL ZONE =         313442.93              SOIL ZONE =        -616258.47
     UNSATURATED ZONE =       -2309251.98       UNSATURATED ZONE =         -63073.68
       SATURATED ZONE =       -3777088.56         SATURATED ZONE =        -149290.69
                LAKES =       -1.0847D+07                  LAKES =        -768219.81

 OVERALL BUDGET ERROR =         132717.15           BUDGET ERROR =           -686.91


  PERCENT DISCREPANCY =              0.40    PERCENT DISCREPANCY =             -0.04



1
 SUMMARY VOLUMETRIC BUDGET FOR GSFLOW 
 DATE: 10 28 1980              CUMULATIVE TIME STEP:      28
 MODFLOW STRESS PERIOD      1     CURRENT TIME STEP:      28     ITERATIONS:       4

 -----------------------------------------------------------------------------------

   CUMULATIVE VOLUMES               L**3   RATES FOR THIS TIME STEP           L**3/T
   ------------------                      ------------------------

                                     IN                                         IN
                                     --                                         --
        PRECIPITATION =        4.0327D+07          PRECIPITATION =                  
           STREAMFLOW =                               STREAMFLOW =                  
     GW BOUNDARY FLOW =                         GW BOUNDARY FLOW =                  


                                    OUT                                        OUT
                                    ---                                        ---
   EVAPOTRANSPIRATION =        3.6492D+07     EVAPOTRANSPIRATION =         402570.92
           STREAMFLOW =        5483093.68             STREAMFLOW =         342843.84
     GW BOUNDARY FLOW =                         GW BOUNDARY FLOW =                  

   INFLOWS - OUTFLOWS =       -1648753.69     INFLOWS - OUTFLOWS =        -745414.76
             --------                                   --------

 TOTAL STORAGE CHANGE =       -2175631.26         STORAGE CHANGE =        -682808.58
       --------------                             --------------
         LAND SURFACE =        4873656.87           LAND SURFACE =        -161715.81
            SOIL ZONE =        7719979.43              SOIL ZONE =        -222435.15
     UNSATURATED ZONE =       -2598282.37       UNSATURATED ZONE =         -29082.57
       SATURATED ZONE =       -4490641.97         SATURATED ZONE =        -123584.69
                LAKES =       -7680343.22                  LAKES =        -145990.36

 OVERALL BUDGET ERROR =         526877.57           BUDGET ERROR =         -62606.18

  ***WARNING, FLUX RATES OFF > 3%

  PERCENT DISCREPANCY =              1.25    PERCENT DISCREPANCY =             -8.77



1
 SUMMARY VOLUMETRIC BUDGET FOR GSFLOW 
 DATE: 11 04 1980              CUMULATIVE TIME STEP:      35
 MODFLOW STRESS PERIOD      1     CURRENT TIME STEP:      35     ITERATIONS:      11

 -----------------------------------------------------------------------------------

   CUMULATIVE VOLUMES               L**3   RATES FOR THIS TIME STEP           L**3/T
   ------------------                      ------------------------

                                     IN                                         IN
                                     --                                         --
        PRECIPITATION =        5.0408D+07          PRECIPITATION =                  
           STREAMFLOW =                               STREAMFLOW =                  
     GW BOUNDARY FLOW =                         GW BOUNDARY FLOW =                  


                                    OUT                                        OUT
                                    ---                                        ---
   EVAPOTRANSPIRATION =        5.1120D+07     EVAPOTRANSPIRATION =        2771894.77
           STREAMFLOW =        7931988.93             STREAMFLOW =         350029.88
     GW BOUNDARY FLOW =                         GW BOUNDARY FLOW =                  

   INFLOWS - OUTFLOWS =       -8643256.17     INFLOWS - OUTFLOWS =       -3121924.65
             --------                                   --------

 TOTAL STORAGE CHANGE =       -9830533.17         STORAGE CHANGE =       -3125695.68
       --------------                             --------------
         LAND SURFACE =         253222.42           LAND SURFACE =         -53384.75
            SOIL ZONE =        4504157.22              SOIL ZONE =       -1765941.62
     UNSATURATED ZONE =       -2529945.23       UNSATURATED ZONE =         -44831.47
       SATURATED ZONE =       -5052617.86         SATURATED ZONE =        -248342.66
                LAKES =       -7005349.72                  LAKES =       -1013195.19

 OVERALL BUDGET ERROR =        1187277.00           BUDGET ERROR =           3771.03


  PERCENT DISCREPANCY =              1.99    PERCENT DISCREPANCY =              0.12



1
 SUMMARY VOLUMETRIC BUDGET FOR GSFLOW 
 DATE: 11 11 1980              CUMULATIVE TIME STEP:      42
 MODFLOW STRESS PERIOD      1     CURRENT TIME STEP:      42     ITERATIONS:       5

 -----------------------------------------------------------------------------------

   CUMULATIVE VOLUMES               L**3   RATES FOR THIS TIME STEP           L**3/T
   ------------------                      ------------------------

                                     IN                                         IN
                                     --                                         --
        PRECIPITATION =        7.9485D+07          PRECIPITATION =        3230734.65
           STREAMFLOW =                               STREAMFLOW =                  
     GW BOUNDARY FLOW =                         GW BOUNDARY FLOW =                  


                                    OUT                                        OUT
                                    ---                                        ---
   EVAPOTRANSPIRATION =        6.8574D+07     EVAPOTRANSPIRATION =        1673735.39
           STREAMFLOW =        9809618.45             STREAMFLOW =         250092.36
     GW BOUNDARY FLOW =                         GW BOUNDARY FLOW =                  

   INFLOWS - OUTFLOWS =        1101313.64     INFLOWS - OUTFLOWS =        1306906.91
             --------                                   --------

 TOTAL STORAGE CHANGE =        -531091.34         STORAGE CHANGE =        1171290.50
       --------------                             --------------
         LAND SURFACE =        3621835.70           LAND SURFACE =         -63920.04
            SOIL ZONE =        9193971.77              SOIL ZONE =         665180.85
     UNSATURATED ZONE =       -2565268.52       UNSATURATED ZONE =          39271.68
       SATURATED ZONE =       -5923786.19         SATURATED ZONE =         -40976.61
                LAKES =       -4857844.10                  LAKES =         571734.62

 OVERALL BUDGET ERROR =        1632404.98           BUDGET ERROR =         135616.41

  ***WARNING, FLUX RATES OFF > 3%

  PERCENT DISCREPANCY =              2.06    PERCENT DISCREPANCY =              4.29



1
 SUMMARY VOLUMETRIC BUDGET FOR GSFLOW 
 DATE: 11 18 1980              CUMULATIVE TIME STEP:      49
 MODFLOW STRESS PERIOD      1     CURRENT TIME STEP:      49     ITERATIONS:       3

 -----------------------------------------------------------------------------------

   CUMULATIVE VOLUMES               L**3   RATES FOR THIS TIME STEP           L**3/T
   ------------------                      ------------------------

                                     IN                                         IN
                                     --                                         --
        PRECIPITATION =        8.5946D+07          PRECIPITATION =                  
           STREAMFLOW =                               STREAMFLOW =                  
     GW BOUNDARY FLOW =                         GW BOUNDARY FLOW =                  


                                    OUT                                        OUT
                                    ---                                        ---
   EVAPOTRANSPIRATION =        7.4640D+07     EVAPOTRANSPIRATION =        1451190.38
           STREAMFLOW =        1.1638D+07             STREAMFLOW =         312770.75
     GW BOUNDARY FLOW =                         GW BOUNDARY FLOW =                  

   INFLOWS - OUTFLOWS =        -332154.80     INFLOWS - OUTFLOWS =       -1763961.13
             --------                                   --------

 TOTAL STORAGE CHANGE =       -1877294.04         STORAGE CHANGE =       -1731584.87
       --------------                             --------------
         LAND SURFACE =        4247190.46           LAND SURFACE =        -429064.21
            SOIL ZONE =        8671360.87              SOIL ZONE =        -608268.89
     UNSATURATED ZONE =       -2503243.45       UNSATURATED ZONE =          13830.81
       SATURATED ZONE =       -7165294.30         SATURATED ZONE =        -173693.77
                LAKES =       -5127307.63                  LAKES =        -534388.81

 OVERALL BUDGET ERROR =        1545139.25           BUDGET ERROR =         -32376.26


  PERCENT DISCREPANCY =              1.77    PERCENT DISCREPANCY =             -1.85



1
 SUMMARY VOLUMETRIC BUDGET FOR GSFLOW 
 DATE: 11 25 1980              CUMULATIVE TIME STEP:      56
 MODFLOW STRESS PERIOD      1     CURRENT TIME STEP:      56     ITERATIONS:       3

 -----------------------------------------------------------------------------------

   CUMULATIVE VOLUMES               L**3   RATES FOR THIS TIME STEP           L**3/T
   ------------------                      ------------------------

                                     IN                                         IN
                                     --                                         --
        PRECIPITATION =        8.9177D+07          PRECIPITATION =                  
           STREAMFLOW =                               STREAMFLOW =                  
     GW BOUNDARY FLOW =                         GW BOUNDARY FLOW =                  


                                    OUT                                        OUT
                                    ---                                        ---
   EVAPOTRANSPIRATION =        8.1244D+07     EVAPOTRANSPIRATION =         261671.05
           STREAMFLOW =        1.4055D+07             STREAMFLOW =         437097.75
     GW BOUNDARY FLOW =                         GW BOUNDARY FLOW =                  

   INFLOWS - OUTFLOWS =       -6121111.00     INFLOWS - OUTFLOWS =        -698768.80
             --------                                   --------

 TOTAL STORAGE CHANGE =       -7770203.05         STORAGE CHANGE =        -714667.38
       --------------                             --------------
         LAND SURFACE =        4128151.39           LAND SURFACE =         -26936.60
            SOIL ZONE =        6829142.42              SOIL ZONE =        -174862.52
     UNSATURATED ZONE =       -2514724.20       UNSATURATED ZONE =         -14704.59
       SATURATED ZONE =       -8403308.59         SATURATED ZONE =        -182644.77
                LAKES =       -7809464.06                  LAKES =        -315518.91

 OVERALL BUDGET ERROR =        1649092.05           BUDGET ERROR =          15898.59


  PERCENT DISCREPANCY =              1.72    PERCENT DISCREPANCY =              2.25



1
 SUMMARY VOLUMETRIC BUDGET FOR GSFLOW 
 DATE: 12 02 1980              CUMULATIVE TIME STEP:      63
 MODFLOW STRESS PERIOD      1     CURRENT TIME STEP:      63     ITERATIONS:       4

 -----------------------------------------------------------------------------------

   CUMULATIVE VOLUMES               L**3   RATES FOR THIS TIME STEP           L**3/T
   ------------------                      ------------------------

                                     IN                                         IN
                                     --                                         --
        PRECIPITATION =        1.0846D+08          PRECIPITATION =        3198161.89
           STREAMFLOW =                               STREAMFLOW =                  
     GW BOUNDARY FLOW =                         GW BOUNDARY FLOW =                  


                                    OUT                                        OUT
                                    ---                                        ---
   EVAPOTRANSPIRATION =        8.8619D+07     EVAPOTRANSPIRATION =        1264981.70
           STREAMFLOW =        1.7318D+07             STREAMFLOW =         437213.25
     GW BOUNDARY FLOW =                         GW BOUNDARY FLOW =                  

   INFLOWS - OUTFLOWS =        2526891.52     INFLOWS - OUTFLOWS =        1495966.94
             --------                                   --------

 TOTAL STORAGE CHANGE =         337199.97         STORAGE CHANGE =        1322841.14
       --------------                             --------------
         LAND SURFACE =        7153033.00           LAND SURFACE =        -909613.44
            SOIL ZONE =        1.0582D+07              SOIL ZONE =        1684396.62
     UNSATURATED ZONE =       -2377734.43       UNSATURATED ZONE =          47329.53
       SATURATED ZONE =       -9135074.84         SATURATED ZONE =         -50241.25
                LAKES =       -5885110.60                  LAKES =         550969.69

 OVERALL BUDGET ERROR =        2189691.55           BUDGET ERROR =         173125.80

  ***WARNING, FLUX RATES OFF > 3%

  PERCENT DISCREPANCY =              2.04    PERCENT DISCREPANCY =              5.56



1
 SUMMARY VOLUMETRIC BUDGET FOR GSFLOW 
 DATE: 12 09 1980              CUMULATIVE TIME STEP:      70
 MODFLOW STRESS PERIOD      1     CURRENT TIME STEP:      70     ITERATIONS:      18

 -----------------------------------------------------------------------------------

   CUMULATIVE VOLUMES               L**3   RATES FOR THIS TIME STEP           L**3/T
   ------------------                      ------------------------

                                     IN                                         IN
                                     --                                         --
        PRECIPITATION =        1.7882D+08          PRECIPITATION =                  
           STREAMFLOW =                               STREAMFLOW =                  
     GW BOUNDARY FLOW =                         GW BOUNDARY FLOW =                  


                                    OUT                                        OUT
                                    ---                                        ---
   EVAPOTRANSPIRATION =        9.0883D+07     EVAPOTRANSPIRATION =         375104.89
           STREAMFLOW =        2.0282D+07             STREAMFLOW =         420980.47
     GW BOUNDARY FLOW =                         GW BOUNDARY FLOW =                  

   INFLOWS - OUTFLOWS =        6.7659D+07     INFLOWS - OUTFLOWS =        -796085.36
             --------                                   --------

 TOTAL STORAGE CHANGE =        6.5499D+07         STORAGE CHANGE =        -812319.37
       --------------                             --------------
         LAND SURFACE =        5.1471D+07           LAND SURFACE =        -232729.71
            SOIL ZONE =        1.3513D+07              SOIL ZONE =        -140209.88
     UNSATURATED ZONE =       -1979864.92       UNSATURATED ZONE =          25762.90
       SATURATED ZONE =       -1.0073D+07         SATURATED ZONE =        -205698.66
                LAKES =        1.2568D+07                  LAKES =        -259444.02

 OVERALL BUDGET ERROR =        2159406.08           BUDGET ERROR =          16234.01


  PERCENT DISCREPANCY =              1.21    PERCENT DISCREPANCY =              2.02



1
 SUMMARY VOLUMETRIC BUDGET FOR GSFLOW 
 DATE: 12 16 1980              CUMULATIVE TIME STEP:      77
 MODFLOW STRESS PERIOD      1     CURRENT TIME STEP:      77     ITERATIONS:       4

 -----------------------------------------------------------------------------------

   CUMULATIVE VOLUMES               L**3   RATES FOR THIS TIME STEP           L**3/T
   ------------------                      ------------------------

                                     IN                                         IN
                                     --                                         --
        PRECIPITATION =        1.7882D+08          PRECIPITATION =                  
           STREAMFLOW =                               STREAMFLOW =                  
     GW BOUNDARY FLOW =                         GW BOUNDARY FLOW =                  


                                    OUT                                        OUT
                                    ---                                        ---
   EVAPOTRANSPIRATION =        9.7268D+07     EVAPOTRANSPIRATION =        1435882.58
           STREAMFLOW =        2.3263D+07             STREAMFLOW =         430698.44
     GW BOUNDARY FLOW =                         GW BOUNDARY FLOW =                  

   INFLOWS - OUTFLOWS =        5.8292D+07     INFLOWS - OUTFLOWS =       -1866581.02
             --------                                   --------

 TOTAL STORAGE CHANGE =        5.5936D+07         STORAGE CHANGE =       -1894234.02
       --------------                             --------------
         LAND SURFACE =        4.7223D+07           LAND SURFACE =       -1206516.25
            SOIL ZONE =        1.3194D+07              SOIL ZONE =         228850.00
     UNSATURATED ZONE =       -1939632.08       UNSATURATED ZONE =          -6393.12
       SATURATED ZONE =       -1.1412D+07         SATURATED ZONE =        -166078.52
                LAKES =        8871003.42                  LAKES =        -744096.12

 OVERALL BUDGET ERROR =        2355793.18           BUDGET ERROR =          27653.00


  PERCENT DISCREPANCY =              1.33    PERCENT DISCREPANCY =              1.47



1
 SUMMARY VOLUMETRIC BUDGET FOR GSFLOW 
 DATE: 12 23 1980              CUMULATIVE TIME STEP:      84
 MODFLOW STRESS PERIOD      1     CURRENT TIME STEP:      84     ITERATIONS:       3

 -----------------------------------------------------------------------------------

   CUMULATIVE VOLUMES               L**3   RATES FOR THIS TIME STEP           L**3/T
   ------------------                      ------------------------

                                     IN                                         IN
                                     --                                         --
        PRECIPITATION =        1.8522D+08          PRECIPITATION =        3198161.89
           STREAMFLOW =                               STREAMFLOW =                  
     GW BOUNDARY FLOW =                         GW BOUNDARY FLOW =                  


                                    OUT                                        OUT
                                    ---                                        ---
   EVAPOTRANSPIRATION =        1.0540D+08     EVAPOTRANSPIRATION =        1087451.42
           STREAMFLOW =        2.6316D+07             STREAMFLOW =         443566.00
     GW BOUNDARY FLOW =                         GW BOUNDARY FLOW =                  

   INFLOWS - OUTFLOWS =        5.3506D+07     INFLOWS - OUTFLOWS =        1667144.47
             --------                                   --------

 TOTAL STORAGE CHANGE =        5.0768D+07         STORAGE CHANGE =        1521452.97
       --------------                             --------------
         LAND SURFACE =        4.2129D+07           LAND SURFACE =        -245970.29
            SOIL ZONE =        1.6167D+07              SOIL ZONE =        1285064.63
     UNSATURATED ZONE =       -1814745.89       UNSATURATED ZONE =          75027.59
       SATURATED ZONE =       -1.2346D+07         SATURATED ZONE =         -78509.15
                LAKES =        6632563.67                  LAKES =         485840.19

 OVERALL BUDGET ERROR =        2738447.53           BUDGET ERROR =         145691.50

  ***WARNING, FLUX RATES OFF > 3%

  PERCENT DISCREPANCY =              1.49    PERCENT DISCREPANCY =              4.66



1
 SUMMARY VOLUMETRIC BUDGET FOR GSFLOW 
 DATE: 12 30 1980              CUMULATIVE TIME STEP:      91
 MODFLOW STRESS PERIOD      1     CURRENT TIME STEP:      91     ITERATIONS:       4

 -----------------------------------------------------------------------------------

   CUMULATIVE VOLUMES               L**3   RATES FOR THIS TIME STEP           L**3/T
   ------------------                      ------------------------

                                     IN                                         IN
                                     --                                         --
        PRECIPITATION =        1.8522D+08          PRECIPITATION =                  
           STREAMFLOW =                               STREAMFLOW =                  
     GW BOUNDARY FLOW =                         GW BOUNDARY FLOW =                  


                                    OUT                                        OUT
                                    ---                                        ---
   EVAPOTRANSPIRATION =        1.1519D+08     EVAPOTRANSPIRATION =        1180066.38
           STREAMFLOW =        2.9399D+07             STREAMFLOW =         445279.72
     GW BOUNDARY FLOW =                         GW BOUNDARY FLOW =                  

   INFLOWS - OUTFLOWS =        4.0631D+07     INFLOWS - OUTFLOWS =       -1625346.10
             --------                                   --------

 TOTAL STORAGE CHANGE =        3.7680D+07         STORAGE CHANGE =       -1641862.94
       --------------                             --------------
         LAND SURFACE =        3.5990D+07           LAND SURFACE =        -559081.80
            SOIL ZONE =        1.4730D+07              SOIL ZONE =        -329615.04
     UNSATURATED ZONE =       -1701538.14       UNSATURATED ZONE =           8591.23
       SATURATED ZONE =       -1.3405D+07         SATURATED ZONE =        -163813.52
                LAKES =        2066229.04                  LAKES =        -597943.81

 OVERALL BUDGET ERROR =        2950838.66           BUDGET ERROR =          16516.84


  PERCENT DISCREPANCY =              1.61    PERCENT DISCREPANCY =              1.01



1
 SUMMARY VOLUMETRIC BUDGET FOR GSFLOW 
 DATE: 01 06 1981              CUMULATIVE TIME STEP:      98
 MODFLOW STRESS PERIOD      1     CURRENT TIME STEP:      98     ITERATIONS:       9

 -----------------------------------------------------------------------------------

   CUMULATIVE VOLUMES               L**3   RATES FOR THIS TIME STEP           L**3/T
   ------------------                      ------------------------

                                     IN                                         IN
                                     --                                         --
        PRECIPITATION =        2.0923D+08          PRECIPITATION =                  
           STREAMFLOW =                               STREAMFLOW =                  
     GW BOUNDARY FLOW =                         GW BOUNDARY FLOW =                  


                                    OUT                                        OUT
                                    ---                                        ---
   EVAPOTRANSPIRATION =        1.2252D+08     EVAPOTRANSPIRATION =        1097350.46
           STREAMFLOW =        3.2519D+07             STREAMFLOW =         445541.22
     GW BOUNDARY FLOW =                         GW BOUNDARY FLOW =                  

   INFLOWS - OUTFLOWS =        5.4188D+07     INFLOWS - OUTFLOWS =       -1542891.68
             --------                                   --------

 TOTAL STORAGE CHANGE =        5.0663D+07         STORAGE CHANGE =       -1573881.49
       --------------                             --------------
         LAND SURFACE =        4.1576D+07           LAND SURFACE =        -362260.72
            SOIL ZONE =        1.7848D+07              SOIL ZONE =        -517426.59
     UNSATURATED ZONE =       -1270889.51       UNSATURATED ZONE =          57317.81
       SATURATED ZONE =       -1.4026D+07         SATURATED ZONE =        -200819.05
                LAKES =        6535613.23                  LAKES =        -550692.94

 OVERALL BUDGET ERROR =        3525938.44           BUDGET ERROR =          30989.81


  PERCENT DISCREPANCY =              1.70    PERCENT DISCREPANCY =              1.99



1
 SUMMARY VOLUMETRIC BUDGET FOR GSFLOW 
 DATE: 01 13 1981              CUMULATIVE TIME STEP:     105
 MODFLOW STRESS PERIOD      1     CURRENT TIME STEP:     105     ITERATIONS:      22

 -----------------------------------------------------------------------------------

   CUMULATIVE VOLUMES               L**3   RATES FOR THIS TIME STEP           L**3/T
   ------------------                      ------------------------

                                     IN                                         IN
                                     --                                         --
        PRECIPITATION =        2.1223D+08          PRECIPITATION =                  
           STREAMFLOW =                               STREAMFLOW =                  
     GW BOUNDARY FLOW =                         GW BOUNDARY FLOW =                  


                                    OUT                                        OUT
                                    ---                                        ---
   EVAPOTRANSPIRATION =        1.3059D+08     EVAPOTRANSPIRATION =        1362603.50
           STREAMFLOW =        3.5650D+07             STREAMFLOW =         457520.66
     GW BOUNDARY FLOW =                         GW BOUNDARY FLOW =                  

   INFLOWS - OUTFLOWS =        4.5988D+07     INFLOWS - OUTFLOWS =       -1820124.15
             --------                                   --------

 TOTAL STORAGE CHANGE =        4.2305D+07         STORAGE CHANGE =       -1845105.88
       --------------                             --------------
         LAND SURFACE =        4.0089D+07           LAND SURFACE =        -485861.70
            SOIL ZONE =        1.5598D+07              SOIL ZONE =        -439157.67
     UNSATURATED ZONE =       -1175636.49       UNSATURATED ZONE =         -20249.10
       SATURATED ZONE =       -1.5276D+07         SATURATED ZONE =        -165596.97
                LAKES =        3069770.79                  LAKES =        -734240.44

 OVERALL BUDGET ERROR =        3683567.82           BUDGET ERROR =          24981.72


  PERCENT DISCREPANCY =              1.75    PERCENT DISCREPANCY =              1.36



1
 SUMMARY VOLUMETRIC BUDGET FOR GSFLOW 
 DATE: 01 20 1981              CUMULATIVE TIME STEP:     112
 MODFLOW STRESS PERIOD      1     CURRENT TIME STEP:     112     ITERATIONS:      12

 -----------------------------------------------------------------------------------

   CUMULATIVE VOLUMES               L**3   RATES FOR THIS TIME STEP           L**3/T
   ------------------                      ------------------------

                                     IN                                         IN
                                     --                                         --
        PRECIPITATION =        2.2423D+08          PRECIPITATION =        6001392.59
           STREAMFLOW =                               STREAMFLOW =                  
     GW BOUNDARY FLOW =                         GW BOUNDARY FLOW =                  


                                    OUT                                        OUT
                                    ---                                        ---
   EVAPOTRANSPIRATION =        1.4144D+08     EVAPOTRANSPIRATION =        1828422.77
           STREAMFLOW =        3.9241D+07             STREAMFLOW =         485528.22
     GW BOUNDARY FLOW =                         GW BOUNDARY FLOW =                  

   INFLOWS - OUTFLOWS =        4.3548D+07     INFLOWS - OUTFLOWS =        3687441.59
             --------                                   --------

 TOTAL STORAGE CHANGE =        3.9598D+07         STORAGE CHANGE =        3576875.73
       --------------                             --------------
         LAND SURFACE =        3.7521D+07           LAND SURFACE =         673026.73
            SOIL ZONE =        1.7126D+07              SOIL ZONE =        1249053.80
     UNSATURATED ZONE =        -939969.04       UNSATURATED ZONE =         107242.97
       SATURATED ZONE =       -1.5921D+07         SATURATED ZONE =          77331.86
                LAKES =        1812113.50                  LAKES =        1470220.38

 OVERALL BUDGET ERROR =        3949788.29           BUDGET ERROR =         110565.86


  PERCENT DISCREPANCY =              1.78    PERCENT DISCREPANCY =              1.86



1
 SUMMARY VOLUMETRIC BUDGET FOR GSFLOW 
 DATE: 01 27 1981              CUMULATIVE TIME STEP:     119
 MODFLOW STRESS PERIOD      1     CURRENT TIME STEP:     119     ITERATIONS:       3

 -----------------------------------------------------------------------------------

   CUMULATIVE VOLUMES               L**3   RATES FOR THIS TIME STEP           L**3/T
   ------------------                      ------------------------

                                     IN                                         IN
                                     --                                         --
        PRECIPITATION =        3.3525D+08          PRECIPITATION =        6.0014D+07
           STREAMFLOW =                               STREAMFLOW =                  
     GW BOUNDARY FLOW =                         GW BOUNDARY FLOW =                  


                                    OUT                                        OUT
                                    ---                                        ---
   EVAPOTRANSPIRATION =        1.5037D+08     EVAPOTRANSPIRATION =         667327.18
           STREAMFLOW =        4.1752D+07             STREAMFLOW =         345816.56
     GW BOUNDARY FLOW =                         GW BOUNDARY FLOW =                  

   INFLOWS - OUTFLOWS =        1.4314D+08     INFLOWS - OUTFLOWS =        5.9001D+07
             --------                                   --------

 TOTAL STORAGE CHANGE =        1.3856D+08         STORAGE CHANGE =        5.8428D+07
       --------------                             --------------
         LAND SURFACE =        1.0747D+08           LAND SURFACE =        4.1072D+07
            SOIL ZONE =        1.8976D+07              SOIL ZONE =        1581343.60
     UNSATURATED ZONE =        -440722.84       UNSATURATED ZONE =         104218.49
       SATURATED ZONE =       -1.6626D+07         SATURATED ZONE =         -57180.03
                LAKES =        2.9186D+07                  LAKES =        1.5727D+07

 OVERALL BUDGET ERROR =        4575690.77           BUDGET ERROR =         572551.75


  PERCENT DISCREPANCY =              1.37    PERCENT DISCREPANCY =              0.96



1
 SUMMARY VOLUMETRIC BUDGET FOR GSFLOW 
 DATE: 02 03 1981              CUMULATIVE TIME STEP:     126
 MODFLOW STRESS PERIOD      1     CURRENT TIME STEP:     126     ITERATIONS:      33

 -----------------------------------------------------------------------------------

   CUMULATIVE VOLUMES               L**3   RATES FOR THIS TIME STEP           L**3/T
   ------------------                      ------------------------

                                     IN                                         IN
                                     --                                         --
        PRECIPITATION =        4.0137D+08          PRECIPITATION =                  
           STREAMFLOW =                               STREAMFLOW =                  
     GW BOUNDARY FLOW =                         GW BOUNDARY FLOW =                  


                                    OUT                                        OUT
                                    ---                                        ---
   EVAPOTRANSPIRATION =        1.5403D+08     EVAPOTRANSPIRATION =         906861.09
           STREAMFLOW =        4.4232D+07             STREAMFLOW =         354895.47
     GW BOUNDARY FLOW =                         GW BOUNDARY FLOW =                  

   INFLOWS - OUTFLOWS =        2.0311D+08     INFLOWS - OUTFLOWS =       -1261756.56
             --------                                   --------

 TOTAL STORAGE CHANGE =        1.9802D+08         STORAGE CHANGE =       -1281424.00
       --------------                             --------------
         LAND SURFACE =        1.5382D+08           LAND SURFACE =        -497697.44
            SOIL ZONE =        1.7961D+07              SOIL ZONE =        -138946.31
     UNSATURATED ZONE =        -162323.52       UNSATURATED ZONE =           2152.77
       SATURATED ZONE =       -1.7836D+07         SATURATED ZONE =        -166742.08
                LAKES =        4.4238D+07                  LAKES =        -480190.94

 OVERALL BUDGET ERROR =        5087942.67           BUDGET ERROR =          19667.44


  PERCENT DISCREPANCY =              1.28    PERCENT DISCREPANCY =              1.55



1
 SUMMARY VOLUMETRIC BUDGET FOR GSFLOW 
 DATE: 02 10 1981              CUMULATIVE TIME STEP:     133
 MODFLOW STRESS PERIOD      1     CURRENT TIME STEP:     133     ITERATIONS:       3

 -----------------------------------------------------------------------------------

   CUMULATIVE VOLUMES               L**3   RATES FOR THIS TIME STEP           L**3/T
   ------------------                      ------------------------

                                     IN                                         IN
                                     --                                         --
        PRECIPITATION =        4.1375D+08          PRECIPITATION =        3095932.43
           STREAMFLOW =                               STREAMFLOW =                  
     GW BOUNDARY FLOW =                         GW BOUNDARY FLOW =                  


                                    OUT                                        OUT
                                    ---                                        ---
   EVAPOTRANSPIRATION =        1.5949D+08     EVAPOTRANSPIRATION =         587255.14
           STREAMFLOW =        4.6626D+07             STREAMFLOW =         340307.28
     GW BOUNDARY FLOW =                         GW BOUNDARY FLOW =                  

   INFLOWS - OUTFLOWS =        2.0764D+08     INFLOWS - OUTFLOWS =        2168370.01
             --------                                   --------

 TOTAL STORAGE CHANGE =        2.0236D+08         STORAGE CHANGE =        2130254.23
       --------------                             --------------
         LAND SURFACE =        1.5941D+08           LAND SURFACE =        1678271.43
            SOIL ZONE =        1.7828D+07              SOIL ZONE =         180263.06
     UNSATURATED ZONE =        -223005.97       UNSATURATED ZONE =          -7436.45
       SATURATED ZONE =       -1.8971D+07         SATURATED ZONE =        -156748.97
                LAKES =        4.4317D+07                  LAKES =         435905.16

 OVERALL BUDGET ERROR =        5273716.58           BUDGET ERROR =          38115.78


  PERCENT DISCREPANCY =              1.28    PERCENT DISCREPANCY =              1.24



1
 SUMMARY VOLUMETRIC BUDGET FOR GSFLOW 
 DATE: 02 17 1981              CUMULATIVE TIME STEP:     140
 MODFLOW STRESS PERIOD      1     CURRENT TIME STEP:     140     ITERATIONS:       8

 -----------------------------------------------------------------------------------

   CUMULATIVE VOLUMES               L**3   RATES FOR THIS TIME STEP           L**3/T
   ------------------                      ------------------------

                                     IN                                         IN
                                     --                                         --
        PRECIPITATION =        4.6328D+08          PRECIPITATION =                  
           STREAMFLOW =                               STREAMFLOW =                  
     GW BOUNDARY FLOW =                         GW BOUNDARY FLOW =                  


                                    OUT                                        OUT
                                    ---                                        ---
   EVAPOTRANSPIRATION =        1.7087D+08     EVAPOTRANSPIRATION =        2633997.99
           STREAMFLOW =        4.8976D+07             STREAMFLOW =         285403.75
     GW BOUNDARY FLOW =                         GW BOUNDARY FLOW =                  

   INFLOWS - OUTFLOWS =        2.4344D+08     INFLOWS - OUTFLOWS =       -2919401.74
             --------                                   --------

 TOTAL STORAGE CHANGE =        2.3757D+08         STORAGE CHANGE =       -2916188.66
       --------------                             --------------
         LAND SURFACE =        1.7506D+08           LAND SURFACE =       -2254149.28
            SOIL ZONE =        2.4167D+07              SOIL ZONE =          -4078.47
     UNSATURATED ZONE =         408932.46       UNSATURATED ZONE =          86032.52
       SATURATED ZONE =       -1.9213D+07         SATURATED ZONE =        -124176.43
                LAKES =        5.7152D+07                  LAKES =        -619817.00

 OVERALL BUDGET ERROR =        5866275.00           BUDGET ERROR =          -3213.08


  PERCENT DISCREPANCY =              1.27    PERCENT DISCREPANCY =             -0.11



1
 SUMMARY VOLUMETRIC BUDGET FOR GSFLOW 
 DATE: 02 24 1981              CUMULATIVE TIME STEP:     147
 MODFLOW STRESS PERIOD      1     CURRENT TIME STEP:     147     ITERATIONS:      17

 -----------------------------------------------------------------------------------

   CUMULATIVE VOLUMES               L**3   RATES FOR THIS TIME STEP           L**3/T
   ------------------                      ------------------------

                                     IN                                         IN
                                     --                                         --
        PRECIPITATION =        4.8805D+08          PRECIPITATION =        1.8576D+07
           STREAMFLOW =                               STREAMFLOW =                  
     GW BOUNDARY FLOW =                         GW BOUNDARY FLOW =                  


                                    OUT                                        OUT
                                    ---                                        ---
   EVAPOTRANSPIRATION =        1.8433D+08     EVAPOTRANSPIRATION =        1366916.81
           STREAMFLOW =        5.0060D+07             STREAMFLOW =         143148.27
     GW BOUNDARY FLOW =                         GW BOUNDARY FLOW =                  

   INFLOWS - OUTFLOWS =        2.5366D+08     INFLOWS - OUTFLOWS =        1.7066D+07
             --------                                   --------

 TOTAL STORAGE CHANGE =        2.4731D+08         STORAGE CHANGE =        1.6907D+07
       --------------                             --------------
         LAND SURFACE =        1.7597D+08           LAND SURFACE =        1.1072D+07
            SOIL ZONE =        2.6332D+07              SOIL ZONE =         446658.51
     UNSATURATED ZONE =       -1330649.28       UNSATURATED ZONE =         264504.78
       SATURATED ZONE =       -1.7661D+07         SATURATED ZONE =           -172.03
                LAKES =        6.4000D+07                  LAKES =        5124228.00

 OVERALL BUDGET ERROR =        6349173.92           BUDGET ERROR =         158224.21


  PERCENT DISCREPANCY =              1.31    PERCENT DISCREPANCY =              0.86



1
 SUMMARY VOLUMETRIC BUDGET FOR GSFLOW 
 DATE: 03 03 1981              CUMULATIVE TIME STEP:     154
 MODFLOW STRESS PERIOD      1     CURRENT TIME STEP:     154     ITERATIONS:      26

 -----------------------------------------------------------------------------------

   CUMULATIVE VOLUMES               L**3   RATES FOR THIS TIME STEP           L**3/T
   ------------------                      ------------------------

                                     IN                                         IN
                                     --                                         --
        PRECIPITATION =        5.0056D+08          PRECIPITATION =                  
           STREAMFLOW =                               STREAMFLOW =                  
     GW BOUNDARY FLOW =                         GW BOUNDARY FLOW =                  


                                    OUT                                        OUT
                                    ---                                        ---
   EVAPOTRANSPIRATION =        1.9298D+08     EVAPOTRANSPIRATION =        2189344.77
           STREAMFLOW =        5.1107D+07             STREAMFLOW =         161590.34
     GW BOUNDARY FLOW =                         GW BOUNDARY FLOW =                  

   INFLOWS - OUTFLOWS =        2.5648D+08     INFLOWS - OUTFLOWS =       -2350935.12
             --------                                   --------

 TOTAL STORAGE CHANGE =        2.4980D+08         STORAGE CHANGE =       -2382754.08
       --------------                             --------------
         LAND SURFACE =        1.7885D+08           LAND SURFACE =       -1096145.58
            SOIL ZONE =        2.4592D+07              SOIL ZONE =        -324932.71
     UNSATURATED ZONE =        -703167.38       UNSATURATED ZONE =         -30634.79
       SATURATED ZONE =       -1.8899D+07         SATURATED ZONE =        -175597.50
                LAKES =        6.5960D+07                  LAKES =        -755443.50

 OVERALL BUDGET ERROR =        6681071.52           BUDGET ERROR =          31818.96


  PERCENT DISCREPANCY =              1.34    PERCENT DISCREPANCY =              1.34



1
 SUMMARY VOLUMETRIC BUDGET FOR GSFLOW 
 DATE: 03 10 1981              CUMULATIVE TIME STEP:     161
 MODFLOW STRESS PERIOD      1     CURRENT TIME STEP:     161     ITERATIONS:      26

 -----------------------------------------------------------------------------------

   CUMULATIVE VOLUMES               L**3   RATES FOR THIS TIME STEP           L**3/T
   ------------------                      ------------------------

                                     IN                                         IN
                                     --                                         --
        PRECIPITATION =        5.0378D+08          PRECIPITATION =        3221591.34
           STREAMFLOW =                               STREAMFLOW =                  
     GW BOUNDARY FLOW =                         GW BOUNDARY FLOW =                  


                                    OUT                                        OUT
                                    ---                                        ---
   EVAPOTRANSPIRATION =        2.1015D+08     EVAPOTRANSPIRATION =        1946629.69
           STREAMFLOW =        5.2252D+07             STREAMFLOW =         164400.23
     GW BOUNDARY FLOW =                         GW BOUNDARY FLOW =                  

   INFLOWS - OUTFLOWS =        2.4138D+08     INFLOWS - OUTFLOWS =        1110561.42
             --------                                   --------

 TOTAL STORAGE CHANGE =        2.3444D+08         STORAGE CHANGE =        1055384.53
       --------------                             --------------
         LAND SURFACE =        1.6676D+08           LAND SURFACE =       -1607197.08
            SOIL ZONE =        2.5244D+07              SOIL ZONE =        1068486.97
     UNSATURATED ZONE =        -906812.15       UNSATURATED ZONE =         116192.42
       SATURATED ZONE =       -1.9536D+07         SATURATED ZONE =          98604.34
                LAKES =        6.2881D+07                  LAKES =        1379297.88

 OVERALL BUDGET ERROR =        6941046.15           BUDGET ERROR =          55176.88


  PERCENT DISCREPANCY =              1.39    PERCENT DISCREPANCY =              1.73



1
 SUMMARY VOLUMETRIC BUDGET FOR GSFLOW 
 DATE: 03 17 1981              CUMULATIVE TIME STEP:     168
 MODFLOW STRESS PERIOD      1     CURRENT TIME STEP:     168     ITERATIONS:      42

 -----------------------------------------------------------------------------------

   CUMULATIVE VOLUMES               L**3   RATES FOR THIS TIME STEP           L**3/T
   ------------------                      ------------------------

                                     IN                                         IN
                                     --                                         --
        PRECIPITATION =        5.1345D+08          PRECIPITATION =        3221591.34
           STREAMFLOW =                               STREAMFLOW =                  
     GW BOUNDARY FLOW =                         GW BOUNDARY FLOW =                  


                                    OUT                                        OUT
                                    ---                                        ---
   EVAPOTRANSPIRATION =        2.2485D+08     EVAPOTRANSPIRATION =        1067745.11
           STREAMFLOW =        5.3448D+07             STREAMFLOW =         174628.33
     GW BOUNDARY FLOW =                         GW BOUNDARY FLOW =                  

   INFLOWS - OUTFLOWS =        2.3515D+08     INFLOWS - OUTFLOWS =        1979217.90
             --------                                   --------

 TOTAL STORAGE CHANGE =        2.2804D+08         STORAGE CHANGE =        1942380.85
       --------------                             --------------
         LAND SURFACE =        1.6298D+08           LAND SURFACE =        1567731.44
            SOIL ZONE =        2.4483D+07              SOIL ZONE =         -25500.85
     UNSATURATED ZONE =        -881152.36       UNSATURATED ZONE =        -121659.09
       SATURATED ZONE =       -2.0337D+07         SATURATED ZONE =         -15253.77
                LAKES =        6.1797D+07                  LAKES =         537063.12

 OVERALL BUDGET ERROR =        7108167.69           BUDGET ERROR =          36837.04


  PERCENT DISCREPANCY =              1.39    PERCENT DISCREPANCY =              1.15



1
 SUMMARY VOLUMETRIC BUDGET FOR GSFLOW 
 DATE: 03 24 1981              CUMULATIVE TIME STEP:     175
 MODFLOW STRESS PERIOD      1     CURRENT TIME STEP:     175     ITERATIONS:      67

 -----------------------------------------------------------------------------------

   CUMULATIVE VOLUMES               L**3   RATES FOR THIS TIME STEP           L**3/T
   ------------------                      ------------------------

                                     IN                                         IN
                                     --                                         --
        PRECIPITATION =        5.7144D+08          PRECIPITATION =        6443182.67
           STREAMFLOW =                               STREAMFLOW =                  
     GW BOUNDARY FLOW =                         GW BOUNDARY FLOW =                  


                                    OUT                                        OUT
                                    ---                                        ---
   EVAPOTRANSPIRATION =        2.3906D+08     EVAPOTRANSPIRATION =        1738728.57
           STREAMFLOW =        5.4586D+07             STREAMFLOW =         165197.27
     GW BOUNDARY FLOW =                         GW BOUNDARY FLOW =                  

   INFLOWS - OUTFLOWS =        2.7779D+08     INFLOWS - OUTFLOWS =        4539256.83
             --------                                   --------

 TOTAL STORAGE CHANGE =        2.7004D+08         STORAGE CHANGE =        4470878.99
       --------------                             --------------
         LAND SURFACE =        1.9121D+08           LAND SURFACE =        1648492.07
            SOIL ZONE =        2.6463D+07              SOIL ZONE =         662340.48
     UNSATURATED ZONE =        -510491.24       UNSATURATED ZONE =         109006.30
       SATURATED ZONE =       -2.0935D+07         SATURATED ZONE =          60633.39
                LAKES =        7.3804D+07                  LAKES =        1990406.75

 OVERALL BUDGET ERROR =        7749878.63           BUDGET ERROR =          68377.84


  PERCENT DISCREPANCY =              1.37    PERCENT DISCREPANCY =              1.07



1
 SUMMARY VOLUMETRIC BUDGET FOR GSFLOW 
 DATE: 03 31 1981              CUMULATIVE TIME STEP:     182
 MODFLOW STRESS PERIOD      1     CURRENT TIME STEP:     182     ITERATIONS:      24

 -----------------------------------------------------------------------------------

   CUMULATIVE VOLUMES               L**3   RATES FOR THIS TIME STEP           L**3/T
   ------------------                      ------------------------

                                     IN                                         IN
                                     --                                         --
        PRECIPITATION =        6.3587D+08          PRECIPITATION =        6443182.67
           STREAMFLOW =                               STREAMFLOW =                  
     GW BOUNDARY FLOW =                         GW BOUNDARY FLOW =                  


                                    OUT                                        OUT
                                    ---                                        ---
   EVAPOTRANSPIRATION =        2.5380D+08     EVAPOTRANSPIRATION =        1160851.42
           STREAMFLOW =        5.5762D+07             STREAMFLOW =         154452.23
     GW BOUNDARY FLOW =                         GW BOUNDARY FLOW =                  

   INFLOWS - OUTFLOWS =        3.2631D+08     INFLOWS - OUTFLOWS =        5127879.01
             --------                                   --------

 TOTAL STORAGE CHANGE =        3.1794D+08         STORAGE CHANGE =        5054435.38
       --------------                             --------------
         LAND SURFACE =        2.1723D+08           LAND SURFACE =        2850911.57
            SOIL ZONE =        2.7925D+07              SOIL ZONE =         389301.84
     UNSATURATED ZONE =       -4194031.24       UNSATURATED ZONE =         138796.65
       SATURATED ZONE =       -1.7702D+07         SATURATED ZONE =         -82634.30
                LAKES =        9.4686D+07                  LAKES =        1758059.62

 OVERALL BUDGET ERROR =        8360835.25           BUDGET ERROR =          73443.63


  PERCENT DISCREPANCY =              1.32    PERCENT DISCREPANCY =              1.15



1
 SUMMARY VOLUMETRIC BUDGET FOR GSFLOW 
 DATE: 04 07 1981              CUMULATIVE TIME STEP:     189
 MODFLOW STRESS PERIOD      1     CURRENT TIME STEP:     189     ITERATIONS:      26

 -----------------------------------------------------------------------------------

   CUMULATIVE VOLUMES               L**3   RATES FOR THIS TIME STEP           L**3/T
   ------------------                      ------------------------

                                     IN                                         IN
                                     --                                         --
        PRECIPITATION =        6.5328D+08          PRECIPITATION =                  
           STREAMFLOW =                               STREAMFLOW =                  
     GW BOUNDARY FLOW =                         GW BOUNDARY FLOW =                  


                                    OUT                                        OUT
                                    ---                                        ---
   EVAPOTRANSPIRATION =        2.7724D+08     EVAPOTRANSPIRATION =        4286555.15
           STREAMFLOW =        5.6901D+07             STREAMFLOW =         204999.31
     GW BOUNDARY FLOW =                         GW BOUNDARY FLOW =                  

   INFLOWS - OUTFLOWS =        3.1914D+08     INFLOWS - OUTFLOWS =       -4491554.46
             --------                                   --------

 TOTAL STORAGE CHANGE =        3.1054D+08         STORAGE CHANGE =       -4521395.49
       --------------                             --------------
         LAND SURFACE =        1.9636D+08           LAND SURFACE =       -6815335.05
            SOIL ZONE =        2.8959D+07              SOIL ZONE =          80355.28
     UNSATURATED ZONE =       -3194822.49       UNSATURATED ZONE =         204240.03
       SATURATED ZONE =       -1.6601D+07         SATURATED ZONE =         267369.50
                LAKES =        1.0502D+08                  LAKES =        1741974.75

 OVERALL BUDGET ERROR =        8603516.68           BUDGET ERROR =          29841.02


  PERCENT DISCREPANCY =              1.33    PERCENT DISCREPANCY =              0.66



1
 SUMMARY VOLUMETRIC BUDGET FOR GSFLOW 
 DATE: 04 14 1981              CUMULATIVE TIME STEP:     196
 MODFLOW STRESS PERIOD      1     CURRENT TIME STEP:     196     ITERATIONS:      23

 -----------------------------------------------------------------------------------

   CUMULATIVE VOLUMES               L**3   RATES FOR THIS TIME STEP           L**3/T
   ------------------                      ------------------------

                                     IN                                         IN
                                     --                                         --
        PRECIPITATION =        6.5328D+08          PRECIPITATION =                  
           STREAMFLOW =                               STREAMFLOW =                  
     GW BOUNDARY FLOW =                         GW BOUNDARY FLOW =                  


                                    OUT                                        OUT
                                    ---                                        ---
   EVAPOTRANSPIRATION =        3.0700D+08     EVAPOTRANSPIRATION =        5152337.70
           STREAMFLOW =        5.8150D+07             STREAMFLOW =         172022.39
     GW BOUNDARY FLOW =                         GW BOUNDARY FLOW =                  

   INFLOWS - OUTFLOWS =        2.8813D+08     INFLOWS - OUTFLOWS =       -5324360.09
             --------                                   --------

 TOTAL STORAGE CHANGE =        2.7937D+08         STORAGE CHANGE =       -5339645.54
       --------------                             --------------
         LAND SURFACE =        1.5009D+08           LAND SURFACE =       -7639635.78
            SOIL ZONE =        2.4867D+07              SOIL ZONE =        -877278.53
     UNSATURATED ZONE =       -1253311.14       UNSATURATED ZONE =         348236.68
       SATURATED ZONE =       -1.4959D+07         SATURATED ZONE =         258425.59
                LAKES =        1.2063D+08                  LAKES =        2570606.50

 OVERALL BUDGET ERROR =        8762483.52           BUDGET ERROR =          15285.45


  PERCENT DISCREPANCY =              1.35    PERCENT DISCREPANCY =              0.29



1
 SUMMARY VOLUMETRIC BUDGET FOR GSFLOW 
 DATE: 04 21 1981              CUMULATIVE TIME STEP:     203
 MODFLOW STRESS PERIOD      1     CURRENT TIME STEP:     203     ITERATIONS:      28

 -----------------------------------------------------------------------------------

   CUMULATIVE VOLUMES               L**3   RATES FOR THIS TIME STEP           L**3/T
   ------------------                      ------------------------

                                     IN                                         IN
                                     --                                         --
        PRECIPITATION =        6.7418D+08          PRECIPITATION =                  
           STREAMFLOW =                               STREAMFLOW =                  
     GW BOUNDARY FLOW =                         GW BOUNDARY FLOW =                  


                                    OUT                                        OUT
                                    ---                                        ---
   EVAPOTRANSPIRATION =        3.3699D+08     EVAPOTRANSPIRATION =        5644658.27
           STREAMFLOW =        5.9366D+07             STREAMFLOW =         169580.91
     GW BOUNDARY FLOW =                         GW BOUNDARY FLOW =                  

   INFLOWS - OUTFLOWS =        2.7782D+08     INFLOWS - OUTFLOWS =       -5814239.17
             --------                                   --------

 TOTAL STORAGE CHANGE =        2.6885D+08         STORAGE CHANGE =       -5819735.10
       --------------                             --------------
         LAND SURFACE =        1.2707D+08           LAND SURFACE =       -3302133.41
            SOIL ZONE =        2.2960D+07              SOIL ZONE =       -2025826.81
     UNSATURATED ZONE =         374262.99       UNSATURATED ZONE =         150906.22
       SATURATED ZONE =       -1.5027D+07         SATURATED ZONE =         -76165.34
                LAKES =        1.3347D+08                  LAKES =        -566515.75

 OVERALL BUDGET ERROR =        8970407.75           BUDGET ERROR =           5495.93


  PERCENT DISCREPANCY =              1.34    PERCENT DISCREPANCY =              0.09



1
 SUMMARY VOLUMETRIC BUDGET FOR GSFLOW 
 DATE: 04 28 1981              CUMULATIVE TIME STEP:     210
 MODFLOW STRESS PERIOD      1     CURRENT TIME STEP:     210     ITERATIONS:      43

 -----------------------------------------------------------------------------------

   CUMULATIVE VOLUMES               L**3   RATES FOR THIS TIME STEP           L**3/T
   ------------------                      ------------------------

                                     IN                                         IN
                                     --                                         --
        PRECIPITATION =        6.8114D+08          PRECIPITATION =                  
           STREAMFLOW =                               STREAMFLOW =                  
     GW BOUNDARY FLOW =                         GW BOUNDARY FLOW =                  


                                    OUT                                        OUT
                                    ---                                        ---
   EVAPOTRANSPIRATION =        3.7875D+08     EVAPOTRANSPIRATION =        5729717.77
           STREAMFLOW =        6.0578D+07             STREAMFLOW =         169029.84
     GW BOUNDARY FLOW =                         GW BOUNDARY FLOW =                  

   INFLOWS - OUTFLOWS =        2.4182D+08     INFLOWS - OUTFLOWS =       -5898747.62
             --------                                   --------

 TOTAL STORAGE CHANGE =        2.3276D+08         STORAGE CHANGE =       -5904104.55
       --------------                             --------------
         LAND SURFACE =        1.0063D+08           LAND SURFACE =       -4252967.19
            SOIL ZONE =        1.3100D+07              SOIL ZONE =       -1645616.56
     UNSATURATED ZONE =         514332.49       UNSATURATED ZONE =         -64768.12
       SATURATED ZONE =       -1.5082D+07         SATURATED ZONE =          99571.88
                LAKES =        1.3360D+08                  LAKES =         -40324.55

 OVERALL BUDGET ERROR =        9051779.27           BUDGET ERROR =           5356.93


  PERCENT DISCREPANCY =              1.34    PERCENT DISCREPANCY =              0.09



1
 SUMMARY VOLUMETRIC BUDGET FOR GSFLOW 
 DATE: 05 05 1981              CUMULATIVE TIME STEP:     217
 MODFLOW STRESS PERIOD      1     CURRENT TIME STEP:     217     ITERATIONS:      38

 -----------------------------------------------------------------------------------

   CUMULATIVE VOLUMES               L**3   RATES FOR THIS TIME STEP           L**3/T
   ------------------                      ------------------------

                                     IN                                         IN
                                     --                                         --
        PRECIPITATION =        6.8811D+08          PRECIPITATION =                  
           STREAMFLOW =                               STREAMFLOW =                  
     GW BOUNDARY FLOW =                         GW BOUNDARY FLOW =                  


                                    OUT                                        OUT
                                    ---                                        ---
   EVAPOTRANSPIRATION =        4.1739D+08     EVAPOTRANSPIRATION =        3867734.42
           STREAMFLOW =        6.1795D+07             STREAMFLOW =         173796.05
     GW BOUNDARY FLOW =                         GW BOUNDARY FLOW =                  

   INFLOWS - OUTFLOWS =        2.0892D+08     INFLOWS - OUTFLOWS =       -4041530.47
             --------                                   --------

 TOTAL STORAGE CHANGE =        1.9983D+08         STORAGE CHANGE =       -4040421.50
       --------------                             --------------
         LAND SURFACE =        7.3996D+07           LAND SURFACE =       -3142859.37
            SOIL ZONE =        6559895.09              SOIL ZONE =        -906459.48
     UNSATURATED ZONE =       -1047641.71       UNSATURATED ZONE =         -92610.26
       SATURATED ZONE =       -1.4246D+07         SATURATED ZONE =         -41384.50
                LAKES =        1.3457D+08                  LAKES =         142892.11

 OVERALL BUDGET ERROR =        9091274.35           BUDGET ERROR =          -1108.97


  PERCENT DISCREPANCY =              1.33    PERCENT DISCREPANCY =             -0.03



1
 SUMMARY VOLUMETRIC BUDGET FOR GSFLOW 
 DATE: 05 12 1981              CUMULATIVE TIME STEP:     224
 MODFLOW STRESS PERIOD      1     CURRENT TIME STEP:     224     ITERATIONS:      58

 -----------------------------------------------------------------------------------

   CUMULATIVE VOLUMES               L**3   RATES FOR THIS TIME STEP           L**3/T
   ------------------                      ------------------------

                                     IN                                         IN
                                     --                                         --
        PRECIPITATION =        6.8811D+08          PRECIPITATION =                  
           STREAMFLOW =                               STREAMFLOW =                  
     GW BOUNDARY FLOW =                         GW BOUNDARY FLOW =                  


                                    OUT                                        OUT
                                    ---                                        ---
   EVAPOTRANSPIRATION =        4.4673D+08     EVAPOTRANSPIRATION =        4659007.25
           STREAMFLOW =        6.2992D+07             STREAMFLOW =         168853.22
     GW BOUNDARY FLOW =                         GW BOUNDARY FLOW =                  

   INFLOWS - OUTFLOWS =        1.7838D+08     INFLOWS - OUTFLOWS =       -4827860.47
             --------                                   --------

 TOTAL STORAGE CHANGE =        1.6925D+08         STORAGE CHANGE =       -4836051.28
       --------------                             --------------
         LAND SURFACE =        4.9094D+07           LAND SURFACE =       -3677638.46
            SOIL ZONE =          33762.33              SOIL ZONE =        -936475.66
     UNSATURATED ZONE =       -3767409.78       UNSATURATED ZONE =        -941104.02
       SATURATED ZONE =       -1.2916D+07         SATURATED ZONE =         522628.41
                LAKES =        1.3681D+08                  LAKES =         196538.45

 OVERALL BUDGET ERROR =        9132533.88           BUDGET ERROR =           8190.81


  PERCENT DISCREPANCY =              1.34    PERCENT DISCREPANCY =              0.17



1
 SUMMARY VOLUMETRIC BUDGET FOR GSFLOW 
 DATE: 05 19 1981              CUMULATIVE TIME STEP:     231
 MODFLOW STRESS PERIOD      1     CURRENT TIME STEP:     231     ITERATIONS:      27

 -----------------------------------------------------------------------------------

   CUMULATIVE VOLUMES               L**3   RATES FOR THIS TIME STEP           L**3/T
   ------------------                      ------------------------

                                     IN                                         IN
                                     --                                         --
        PRECIPITATION =        7.4671D+08          PRECIPITATION =        3447112.78
           STREAMFLOW =                               STREAMFLOW =                  
     GW BOUNDARY FLOW =                         GW BOUNDARY FLOW =                  


                                    OUT                                        OUT
                                    ---                                        ---
   EVAPOTRANSPIRATION =        4.6504D+08     EVAPOTRANSPIRATION =        1735824.61
           STREAMFLOW =        6.4183D+07             STREAMFLOW =         172527.20
     GW BOUNDARY FLOW =                         GW BOUNDARY FLOW =                  

   INFLOWS - OUTFLOWS =        2.1749D+08     INFLOWS - OUTFLOWS =        1538760.97
             --------                                   --------

 TOTAL STORAGE CHANGE =        2.0808D+08         STORAGE CHANGE =        1519821.36
       --------------                             --------------
         LAND SURFACE =        5.2560D+07           LAND SURFACE =       -3316295.73
            SOIL ZONE =        1.0991D+07              SOIL ZONE =        1976337.62
     UNSATURATED ZONE =       -4008227.72       UNSATURATED ZONE =          55319.91
       SATURATED ZONE =       -1.2550D+07         SATURATED ZONE =          19086.81
                LAKES =        1.6109D+08                  LAKES =        2785372.75

 OVERALL BUDGET ERROR =        9407043.04           BUDGET ERROR =          18939.61


  PERCENT DISCREPANCY =              1.27    PERCENT DISCREPANCY =              0.55



1
 SUMMARY VOLUMETRIC BUDGET FOR GSFLOW 
 DATE: 05 26 1981              CUMULATIVE TIME STEP:     238
 MODFLOW STRESS PERIOD      1     CURRENT TIME STEP:     238     ITERATIONS:      54

 -----------------------------------------------------------------------------------

   CUMULATIVE VOLUMES               L**3   RATES FOR THIS TIME STEP           L**3/T
   ------------------                      ------------------------

                                     IN                                         IN
                                     --                                         --
        PRECIPITATION =        7.7429D+08          PRECIPITATION =        1.7236D+07
           STREAMFLOW =                               STREAMFLOW =                  
     GW BOUNDARY FLOW =                         GW BOUNDARY FLOW =                  


                                    OUT                                        OUT
                                    ---                                        ---
   EVAPOTRANSPIRATION =        4.9623D+08     EVAPOTRANSPIRATION =        2624597.28
           STREAMFLOW =        6.5384D+07             STREAMFLOW =         180466.84
     GW BOUNDARY FLOW =                         GW BOUNDARY FLOW =                  

   INFLOWS - OUTFLOWS =        2.1267D+08     INFLOWS - OUTFLOWS =        1.4430D+07
             --------                                   --------

 TOTAL STORAGE CHANGE =        2.0311D+08         STORAGE CHANGE =        1.4349D+07
       --------------                             --------------
         LAND SURFACE =        3.5549D+07           LAND SURFACE =        -311649.66
            SOIL ZONE =        9555308.50              SOIL ZONE =        4560484.97
     UNSATURATED ZONE =       -3894999.16       UNSATURATED ZONE =          58767.09
       SATURATED ZONE =       -1.2025D+07         SATURATED ZONE =         590039.38
                LAKES =        1.7393D+08                  LAKES =        9451081.00

 OVERALL BUDGET ERROR =        9562314.30           BUDGET ERROR =          81776.77


  PERCENT DISCREPANCY =              1.24    PERCENT DISCREPANCY =              0.48



1
 SUMMARY VOLUMETRIC BUDGET FOR GSFLOW 
 DATE: 06 02 1981              CUMULATIVE TIME STEP:     245
 MODFLOW STRESS PERIOD      1     CURRENT TIME STEP:     245     ITERATIONS:      33

 -----------------------------------------------------------------------------------

   CUMULATIVE VOLUMES               L**3   RATES FOR THIS TIME STEP           L**3/T
   ------------------                      ------------------------

                                     IN                                         IN
                                     --                                         --
        PRECIPITATION =        7.7429D+08          PRECIPITATION =                  
           STREAMFLOW =                               STREAMFLOW =                  
     GW BOUNDARY FLOW =                         GW BOUNDARY FLOW =                  


                                    OUT                                        OUT
                                    ---                                        ---
   EVAPOTRANSPIRATION =        5.3730D+08     EVAPOTRANSPIRATION =        5904228.40
           STREAMFLOW =        6.6604D+07             STREAMFLOW =         178725.95
     GW BOUNDARY FLOW =                         GW BOUNDARY FLOW =                  

   INFLOWS - OUTFLOWS =        1.7038D+08     INFLOWS - OUTFLOWS =       -6082954.36
             --------                                   --------

 TOTAL STORAGE CHANGE =        1.6084D+08         STORAGE CHANGE =       -6087204.29
       --------------                             --------------
         LAND SURFACE =        2.1595D+07           LAND SURFACE =       -1680702.74
            SOIL ZONE =       -6261854.80              SOIL ZONE =       -1912531.61
     UNSATURATED ZONE =       -8692408.37       UNSATURATED ZONE =        -226323.93
       SATURATED ZONE =       -1.0440D+07         SATURATED ZONE =        -231091.39
                LAKES =        1.6464D+08                  LAKES =       -2036554.62

 OVERALL BUDGET ERROR =        9542283.21           BUDGET ERROR =           4249.94


  PERCENT DISCREPANCY =              1.24    PERCENT DISCREPANCY =              0.07



1
 SUMMARY VOLUMETRIC BUDGET FOR GSFLOW 
 DATE: 06 09 1981              CUMULATIVE TIME STEP:     252
 MODFLOW STRESS PERIOD      1     CURRENT TIME STEP:     252     ITERATIONS:      31

 -----------------------------------------------------------------------------------

   CUMULATIVE VOLUMES               L**3   RATES FOR THIS TIME STEP           L**3/T
   ------------------                      ------------------------

                                     IN                                         IN
                                     --                                         --
        PRECIPITATION =        7.7752D+08          PRECIPITATION =                  
           STREAMFLOW =                               STREAMFLOW =                  
     GW BOUNDARY FLOW =                         GW BOUNDARY FLOW =                  


                                    OUT                                        OUT
                                    ---                                        ---
   EVAPOTRANSPIRATION =        5.7503D+08     EVAPOTRANSPIRATION =        5600264.45
           STREAMFLOW =        6.7848D+07             STREAMFLOW =         203133.83
     GW BOUNDARY FLOW =                         GW BOUNDARY FLOW =                  

   INFLOWS - OUTFLOWS =        1.3464D+08     INFLOWS - OUTFLOWS =       -5803398.28
             --------                                   --------

 TOTAL STORAGE CHANGE =        1.2508D+08         STORAGE CHANGE =       -5812063.18
       --------------                             --------------
         LAND SURFACE =        1.1147D+07           LAND SURFACE =       -1086014.01
            SOIL ZONE =       -1.7024D+07              SOIL ZONE =       -1813421.91
     UNSATURATED ZONE =       -1.0274D+07       UNSATURATED ZONE =        -263486.44
       SATURATED ZONE =       -1.1611D+07         SATURATED ZONE =        -232516.33
                LAKES =        1.5284D+08                  LAKES =       -2416624.50

 OVERALL BUDGET ERROR =        9564320.00           BUDGET ERROR =           8664.90


  PERCENT DISCREPANCY =              1.24    PERCENT DISCREPANCY =              0.15



1
 SUMMARY VOLUMETRIC BUDGET FOR GSFLOW 
 DATE: 06 16 1981              CUMULATIVE TIME STEP:     259
 MODFLOW STRESS PERIOD      1     CURRENT TIME STEP:     259     ITERATIONS:      40

 -----------------------------------------------------------------------------------

   CUMULATIVE VOLUMES               L**3   RATES FOR THIS TIME STEP           L**3/T
   ------------------                      ------------------------

                                     IN                                         IN
                                     --                                         --
        PRECIPITATION =        7.7752D+08          PRECIPITATION =                  
           STREAMFLOW =                               STREAMFLOW =                  
     GW BOUNDARY FLOW =                         GW BOUNDARY FLOW =                  


                                    OUT                                        OUT
                                    ---                                        ---
   EVAPOTRANSPIRATION =        6.0404D+08     EVAPOTRANSPIRATION =        4926565.49
           STREAMFLOW =        7.0955D+07             STREAMFLOW =         702199.94
     GW BOUNDARY FLOW =                         GW BOUNDARY FLOW =                  

   INFLOWS - OUTFLOWS =        1.0253D+08     INFLOWS - OUTFLOWS =       -5628765.42
             --------                                   --------

 TOTAL STORAGE CHANGE =        9.2946D+07         STORAGE CHANGE =       -5636247.89
[...]
       SATURATED ZONE =       -6.7717D+07         SATURATED ZONE =        -185945.45
                LAKES =        7.0573D+08                  LAKES =       -4165873.50

 OVERALL BUDGET ERROR =        5.4240D+07           BUDGET ERROR =          30846.09


  PERCENT DISCREPANCY =              1.00    PERCENT DISCREPANCY =              0.68



1
 SUMMARY VOLUMETRIC BUDGET FOR GSFLOW 
 DATE: 11 29 1983              CUMULATIVE TIME STEP:    1155
 MODFLOW STRESS PERIOD      1     CURRENT TIME STEP:    1155     ITERATIONS:       3

 -----------------------------------------------------------------------------------

   CUMULATIVE VOLUMES               L**3   RATES FOR THIS TIME STEP           L**3/T
   ------------------                      ------------------------

                                     IN                                         IN
                                     --                                         --
        PRECIPITATION =        5.5463D+09          PRECIPITATION =        6461469.31
           STREAMFLOW =                               STREAMFLOW =                  
     GW BOUNDARY FLOW =                         GW BOUNDARY FLOW =                  


                                    OUT                                        OUT
                                    ---                                        ---
   EVAPOTRANSPIRATION =        2.9177D+09     EVAPOTRANSPIRATION =         358715.55
           STREAMFLOW =        1.6169D+09             STREAMFLOW =        4966705.50
     GW BOUNDARY FLOW =                         GW BOUNDARY FLOW =                  

   INFLOWS - OUTFLOWS =        1.0117D+09     INFLOWS - OUTFLOWS =        1136048.25
             --------                                   --------

 TOTAL STORAGE CHANGE =        9.5700D+08         STORAGE CHANGE =        1098428.86
       --------------                             --------------
         LAND SURFACE =        3.3601D+08           LAND SURFACE =        4614418.77
            SOIL ZONE =        5244605.47              SOIL ZONE =         -72197.68
     UNSATURATED ZONE =       -1.4409D+07       UNSATURATED ZONE =          32296.92
       SATURATED ZONE =       -6.8963D+07         SATURATED ZONE =        -172323.91
                LAKES =        6.9912D+08                  LAKES =       -3303765.25

 OVERALL BUDGET ERROR =        5.4726D+07           BUDGET ERROR =          37619.40


  PERCENT DISCREPANCY =              0.99    PERCENT DISCREPANCY =              0.58



1
 SUMMARY VOLUMETRIC BUDGET FOR GSFLOW 
 DATE: 12 06 1983              CUMULATIVE TIME STEP:    1162
 MODFLOW STRESS PERIOD      1     CURRENT TIME STEP:    1162     ITERATIONS:      11

 -----------------------------------------------------------------------------------

   CUMULATIVE VOLUMES               L**3   RATES FOR THIS TIME STEP           L**3/T
   ------------------                      ------------------------

                                     IN                                         IN
                                     --                                         --
        PRECIPITATION =        5.6038D+09          PRECIPITATION =        3198161.89
           STREAMFLOW =                               STREAMFLOW =                  
     GW BOUNDARY FLOW =                         GW BOUNDARY FLOW =                  


                                    OUT                                        OUT
                                    ---                                        ---
   EVAPOTRANSPIRATION =        2.9214D+09     EVAPOTRANSPIRATION =         188800.05
           STREAMFLOW =        1.6522D+09             STREAMFLOW =        5064639.00
     GW BOUNDARY FLOW =                         GW BOUNDARY FLOW =                  

   INFLOWS - OUTFLOWS =        1.0302D+09     INFLOWS - OUTFLOWS =       -2055277.16
             --------                                   --------

 TOTAL STORAGE CHANGE =        9.7506D+08         STORAGE CHANGE =       -2080988.61
       --------------                             --------------
         LAND SURFACE =        3.7453D+08           LAND SURFACE =        2297029.22
            SOIL ZONE =        5780102.40              SOIL ZONE =        -128520.16
     UNSATURATED ZONE =       -1.4224D+07       UNSATURATED ZONE =         -58305.32
       SATURATED ZONE =       -6.9909D+07         SATURATED ZONE =         -65769.09
                LAKES =        6.7888D+08                  LAKES =       -4125423.25

 OVERALL BUDGET ERROR =        5.5094D+07           BUDGET ERROR =          25711.45


  PERCENT DISCREPANCY =              0.99    PERCENT DISCREPANCY =              0.49



1
 SUMMARY VOLUMETRIC BUDGET FOR GSFLOW 
 DATE: 12 13 1983              CUMULATIVE TIME STEP:    1169
 MODFLOW STRESS PERIOD      1     CURRENT TIME STEP:    1169     ITERATIONS:      14

 -----------------------------------------------------------------------------------

   CUMULATIVE VOLUMES               L**3   RATES FOR THIS TIME STEP           L**3/T
   ------------------                      ------------------------

                                     IN                                         IN
                                     --                                         --
        PRECIPITATION =        5.6998D+09          PRECIPITATION =        9594484.95
           STREAMFLOW =                               STREAMFLOW =                  
     GW BOUNDARY FLOW =                         GW BOUNDARY FLOW =                  


                                    OUT                                        OUT
                                    ---                                        ---
   EVAPOTRANSPIRATION =        2.9252D+09     EVAPOTRANSPIRATION =         228657.27
           STREAMFLOW =        1.6892D+09             STREAMFLOW =        5260512.00
     GW BOUNDARY FLOW =                         GW BOUNDARY FLOW =                  

   INFLOWS - OUTFLOWS =        1.0854D+09     INFLOWS - OUTFLOWS =        4105315.67
             --------                                   --------

 TOTAL STORAGE CHANGE =        1.0296D+09         STORAGE CHANGE =        4046327.72
       --------------                             --------------
         LAND SURFACE =        4.3881D+08           LAND SURFACE =        7023337.24
            SOIL ZONE =        7007702.55              SOIL ZONE =        -178582.06
     UNSATURATED ZONE =       -1.3732D+07       UNSATURATED ZONE =          45405.75
       SATURATED ZONE =       -7.0683D+07         SATURATED ZONE =        -172420.22
                LAKES =        6.6825D+08                  LAKES =       -2671413.00

 OVERALL BUDGET ERROR =        5.5710D+07           BUDGET ERROR =          58987.96


  PERCENT DISCREPANCY =              0.98    PERCENT DISCREPANCY =              0.62



1
 SUMMARY VOLUMETRIC BUDGET FOR GSFLOW 
 DATE: 12 20 1983              CUMULATIVE TIME STEP:    1176
 MODFLOW STRESS PERIOD      1     CURRENT TIME STEP:    1176     ITERATIONS:       2

 -----------------------------------------------------------------------------------

   CUMULATIVE VOLUMES               L**3   RATES FOR THIS TIME STEP           L**3/T
   ------------------                      ------------------------

                                     IN                                         IN
                                     --                                         --
        PRECIPITATION =        5.7158D+09          PRECIPITATION =                  
           STREAMFLOW =                               STREAMFLOW =                  
     GW BOUNDARY FLOW =                         GW BOUNDARY FLOW =                  


                                    OUT                                        OUT
                                    ---                                        ---
   EVAPOTRANSPIRATION =        2.9331D+09     EVAPOTRANSPIRATION =         341082.58
           STREAMFLOW =        1.7278D+09             STREAMFLOW =        5578472.50
     GW BOUNDARY FLOW =                         GW BOUNDARY FLOW =                  

   INFLOWS - OUTFLOWS =        1.0549D+09     INFLOWS - OUTFLOWS =       -5919555.08
             --------                                   --------

 TOTAL STORAGE CHANGE =        9.9888D+08         STORAGE CHANGE =       -5953068.03
       --------------                             --------------
         LAND SURFACE =        4.4222D+08           LAND SURFACE =        -213865.81
            SOIL ZONE =        7730778.45              SOIL ZONE =        -176498.10
     UNSATURATED ZONE =       -1.3329D+07       UNSATURATED ZONE =          48340.93
       SATURATED ZONE =       -7.1742D+07         SATURATED ZONE =        -183349.55
                LAKES =        6.3400D+08                  LAKES =       -5427695.50

 OVERALL BUDGET ERROR =        5.6058D+07           BUDGET ERROR =          33512.95


  PERCENT DISCREPANCY =              0.99    PERCENT DISCREPANCY =              0.56



1
 SUMMARY VOLUMETRIC BUDGET FOR GSFLOW 
 DATE: 12 27 1983              CUMULATIVE TIME STEP:    1183
 MODFLOW STRESS PERIOD      1     CURRENT TIME STEP:    1183     ITERATIONS:       4

 -----------------------------------------------------------------------------------

   CUMULATIVE VOLUMES               L**3   RATES FOR THIS TIME STEP           L**3/T
   ------------------                      ------------------------

                                     IN                                         IN
                                     --                                         --
        PRECIPITATION =        5.8917D+09          PRECIPITATION =        9594484.95
           STREAMFLOW =                               STREAMFLOW =                  
     GW BOUNDARY FLOW =                         GW BOUNDARY FLOW =                  


                                    OUT                                        OUT
                                    ---                                        ---
   EVAPOTRANSPIRATION =        2.9353D+09     EVAPOTRANSPIRATION =         404347.57
           STREAMFLOW =        1.7668D+09             STREAMFLOW =        5677393.00
     GW BOUNDARY FLOW =                         GW BOUNDARY FLOW =                  

   INFLOWS - OUTFLOWS =        1.1896D+09     INFLOWS - OUTFLOWS =        3512744.37
             --------                                   --------

 TOTAL STORAGE CHANGE =        1.1326D+09         STORAGE CHANGE =        3442864.33
       --------------                             --------------
         LAND SURFACE =        5.6722D+08           LAND SURFACE =        5883791.64
            SOIL ZONE =        8448765.16              SOIL ZONE =         228671.64
     UNSATURATED ZONE =       -1.2917D+07       UNSATURATED ZONE =         113971.82
       SATURATED ZONE =       -7.2506D+07         SATURATED ZONE =         -99067.27
                LAKES =        6.4231D+08                  LAKES =       -2684503.50

 OVERALL BUDGET ERROR =        5.6999D+07           BUDGET ERROR =          69880.04


  PERCENT DISCREPANCY =              0.97    PERCENT DISCREPANCY =              0.73



1
 SUMMARY VOLUMETRIC BUDGET FOR GSFLOW 
 DATE: 01 03 1984              CUMULATIVE TIME STEP:    1190
 MODFLOW STRESS PERIOD      1     CURRENT TIME STEP:    1190     ITERATIONS:       3

 -----------------------------------------------------------------------------------

   CUMULATIVE VOLUMES               L**3   RATES FOR THIS TIME STEP           L**3/T
   ------------------                      ------------------------

                                     IN                                         IN
                                     --                                         --
        PRECIPITATION =        5.9235D+09          PRECIPITATION =                  
           STREAMFLOW =                               STREAMFLOW =                  
     GW BOUNDARY FLOW =                         GW BOUNDARY FLOW =                  


                                    OUT                                        OUT
                                    ---                                        ---
   EVAPOTRANSPIRATION =        2.9418D+09     EVAPOTRANSPIRATION =        1481522.20
           STREAMFLOW =        1.8064D+09             STREAMFLOW =        5603065.50
     GW BOUNDARY FLOW =                         GW BOUNDARY FLOW =                  

   INFLOWS - OUTFLOWS =        1.1753D+09     INFLOWS - OUTFLOWS =       -7084587.70
             --------                                   --------

 TOTAL STORAGE CHANGE =        1.1177D+09         STORAGE CHANGE =       -7109805.64
       --------------                             --------------
         LAND SURFACE =        5.8049D+08           LAND SURFACE =        -951131.11
            SOIL ZONE =        9156244.92              SOIL ZONE =        -185286.44
     UNSATURATED ZONE =       -1.2415D+07       UNSATURATED ZONE =          10827.94
       SATURATED ZONE =       -7.3427D+07         SATURATED ZONE =        -192227.02
                LAKES =        6.1390D+08                  LAKES =       -5791989.00

 OVERALL BUDGET ERROR =        5.7558D+07           BUDGET ERROR =          25217.94


  PERCENT DISCREPANCY =              0.98    PERCENT DISCREPANCY =              0.36



1
 SUMMARY VOLUMETRIC BUDGET FOR GSFLOW 
 DATE: 01 10 1984              CUMULATIVE TIME STEP:    1197
 MODFLOW STRESS PERIOD      1     CURRENT TIME STEP:    1197     ITERATIONS:       4

 -----------------------------------------------------------------------------------

   CUMULATIVE VOLUMES               L**3   RATES FOR THIS TIME STEP           L**3/T
   ------------------                      ------------------------

                                     IN                                         IN
                                     --                                         --
        PRECIPITATION =        5.9235D+09          PRECIPITATION =                  
           STREAMFLOW =                               STREAMFLOW =                  
     GW BOUNDARY FLOW =                         GW BOUNDARY FLOW =                  


                                    OUT                                        OUT
                                    ---                                        ---
   EVAPOTRANSPIRATION =        2.9546D+09     EVAPOTRANSPIRATION =        1766747.92
           STREAMFLOW =        1.8438D+09             STREAMFLOW =        5235933.50
     GW BOUNDARY FLOW =                         GW BOUNDARY FLOW =                  

   INFLOWS - OUTFLOWS =        1.1251D+09     INFLOWS - OUTFLOWS =       -7002681.42
             --------                                   --------

 TOTAL STORAGE CHANGE =        1.0673D+09         STORAGE CHANGE =       -7046803.47
       --------------                             --------------
         LAND SURFACE =        5.6881D+08           LAND SURFACE =       -1899310.75
            SOIL ZONE =        1.0133D+07              SOIL ZONE =         272123.46
     UNSATURATED ZONE =       -1.2457D+07       UNSATURATED ZONE =          28838.71
       SATURATED ZONE =       -7.4283D+07         SATURATED ZONE =        -103936.39
                LAKES =        5.7514D+08                  LAKES =       -5344518.50

 OVERALL BUDGET ERROR =        5.7763D+07           BUDGET ERROR =          44122.05


  PERCENT DISCREPANCY =              0.98    PERCENT DISCREPANCY =              0.63



1
 SUMMARY VOLUMETRIC BUDGET FOR GSFLOW 
 DATE: 01 17 1984              CUMULATIVE TIME STEP:    1204
 MODFLOW STRESS PERIOD      1     CURRENT TIME STEP:    1204     ITERATIONS:       3

 -----------------------------------------------------------------------------------

   CUMULATIVE VOLUMES               L**3   RATES FOR THIS TIME STEP           L**3/T
   ------------------                      ------------------------

                                     IN                                         IN
                                     --                                         --
        PRECIPITATION =        5.9475D+09          PRECIPITATION =                  
           STREAMFLOW =                               STREAMFLOW =                  
     GW BOUNDARY FLOW =                         GW BOUNDARY FLOW =                  


                                    OUT                                        OUT
                                    ---                                        ---
   EVAPOTRANSPIRATION =        2.9584D+09     EVAPOTRANSPIRATION =         519194.14
           STREAMFLOW =        1.8795D+09             STREAMFLOW =        5015584.50
     GW BOUNDARY FLOW =                         GW BOUNDARY FLOW =                  

   INFLOWS - OUTFLOWS =        1.1096D+09     INFLOWS - OUTFLOWS =       -5534778.64
             --------                                   --------

 TOTAL STORAGE CHANGE =        1.0516D+09         STORAGE CHANGE =       -5543895.57
       --------------                             --------------
         LAND SURFACE =        5.8433D+08           LAND SURFACE =        -355918.57
            SOIL ZONE =        9191045.48              SOIL ZONE =         -95652.40
     UNSATURATED ZONE =       -1.2347D+07       UNSATURATED ZONE =           1608.57
       SATURATED ZONE =       -7.5383D+07         SATURATED ZONE =        -161431.67
                LAKES =        5.4584D+08                  LAKES =       -4932501.50

 OVERALL BUDGET ERROR =        5.7946D+07           BUDGET ERROR =           9116.92


  PERCENT DISCREPANCY =              0.98    PERCENT DISCREPANCY =              0.16



1
 SUMMARY VOLUMETRIC BUDGET FOR GSFLOW 
 DATE: 01 24 1984              CUMULATIVE TIME STEP:    1211
 MODFLOW STRESS PERIOD      1     CURRENT TIME STEP:    1211     ITERATIONS:       3

 -----------------------------------------------------------------------------------

   CUMULATIVE VOLUMES               L**3   RATES FOR THIS TIME STEP           L**3/T
   ------------------                      ------------------------

                                     IN                                         IN
                                     --                                         --
        PRECIPITATION =        5.9535D+09          PRECIPITATION =                  
           STREAMFLOW =                               STREAMFLOW =                  
     GW BOUNDARY FLOW =                         GW BOUNDARY FLOW =                  


                                    OUT                                        OUT
                                    ---                                        ---
   EVAPOTRANSPIRATION =        2.9639D+09     EVAPOTRANSPIRATION =        1069054.59
           STREAMFLOW =        1.9143D+09             STREAMFLOW =        4917688.50
     GW BOUNDARY FLOW =                         GW BOUNDARY FLOW =                  

   INFLOWS - OUTFLOWS =        1.0753D+09     INFLOWS - OUTFLOWS =       -5986743.09
             --------                                   --------

 TOTAL STORAGE CHANGE =        1.0172D+09         STORAGE CHANGE =       -6002560.38
       --------------                             --------------
         LAND SURFACE =        5.8574D+08           LAND SURFACE =        -567657.68
            SOIL ZONE =        8689092.13              SOIL ZONE =         -59724.71
     UNSATURATED ZONE =       -1.2566D+07       UNSATURATED ZONE =         -44948.57
       SATURATED ZONE =       -7.6452D+07         SATURATED ZONE =        -159380.91
                LAKES =        5.1182D+08                  LAKES =       -5170848.50

 OVERALL BUDGET ERROR =        5.8047D+07           BUDGET ERROR =          15817.28


  PERCENT DISCREPANCY =              0.98    PERCENT DISCREPANCY =              0.26



