1
 SUMMARY VOLUMETRIC BUDGET FOR GSFLOW 
 DATE: 12 08 1983              CUMULATIVE TIME STEP:    1164
 MODFLOW STRESS PERIOD      1     CURRENT TIME STEP:       7     ITERATIONS:      38

 -----------------------------------------------------------------------------------

   CUMULATIVE VOLUMES               L**3   RATES FOR THIS TIME STEP           L**3/T
   ------------------                      ------------------------

                                     IN                                         IN
                                     --                                         --
        PRECIPITATION =        7.3558D+07          PRECIPITATION =        9594484.95
           STREAMFLOW =                               STREAMFLOW =                  
     GW BOUNDARY FLOW =                         GW BOUNDARY FLOW =                  


                                    OUT                                        OUT
                                    ---                                        ---
   EVAPOTRANSPIRATION =        3199671.48     EVAPOTRANSPIRATION =        1068083.49
           STREAMFLOW =        3.5846D+07             STREAMFLOW =        5236643.00
     GW BOUNDARY FLOW =                         GW BOUNDARY FLOW =                  

   INFLOWS - OUTFLOWS =        3.4512D+07     INFLOWS - OUTFLOWS =        3289758.45
             --------                                   --------

 TOTAL STORAGE CHANGE =        3.4234D+07         STORAGE CHANGE =        3245495.14
       --------------                             --------------
         LAND SURFACE =        4.9421D+07           LAND SURFACE =        5505108.62
            SOIL ZONE =        1142186.93              SOIL ZONE =         473696.02
     UNSATURATED ZONE =         198825.73       UNSATURATED ZONE =         -77880.97
       SATURATED ZONE =        -785745.93         SATURATED ZONE =          47834.47
                LAKES =       -1.5743D+07                  LAKES =       -2703263.00

 OVERALL BUDGET ERROR =         278111.26           BUDGET ERROR =          44263.32


  PERCENT DISCREPANCY =              0.38    PERCENT DISCREPANCY =              0.46



1
 SUMMARY VOLUMETRIC BUDGET FOR GSFLOW 
 DATE: 12 15 1983              CUMULATIVE TIME STEP:    1171
 MODFLOW STRESS PERIOD      1     CURRENT TIME STEP:      14     ITERATIONS:       5

 -----------------------------------------------------------------------------------

   CUMULATIVE VOLUMES               L**3   RATES FOR THIS TIME STEP           L**3/T
   ------------------                      ------------------------

                                     IN                                         IN
                                     --                                         --
        PRECIPITATION =        1.5351D+08          PRECIPITATION =                  
           STREAMFLOW =                               STREAMFLOW =                  
     GW BOUNDARY FLOW =                         GW BOUNDARY FLOW =                  


                                    OUT                                        OUT
                                    ---                                        ---
   EVAPOTRANSPIRATION =        8208440.79     EVAPOTRANSPIRATION =        1489054.12
           STREAMFLOW =        7.2942D+07             STREAMFLOW =        5407177.50
     GW BOUNDARY FLOW =                         GW BOUNDARY FLOW =                  

   INFLOWS - OUTFLOWS =        7.2361D+07     INFLOWS - OUTFLOWS =       -6896231.62
             --------                                   --------

 TOTAL STORAGE CHANGE =        7.1860D+07         STORAGE CHANGE =       -6912094.46
       --------------                             --------------
         LAND SURFACE =        1.0186D+08           LAND SURFACE =        -868160.84
            SOIL ZONE =        1714039.36              SOIL ZONE =        -130958.46
     UNSATURATED ZONE =         696494.81       UNSATURATED ZONE =          27831.97
       SATURATED ZONE =       -1653731.30         SATURATED ZONE =        -179316.14
                LAKES =       -3.0760D+07                  LAKES =       -5761491.00

 OVERALL BUDGET ERROR =         500623.52           BUDGET ERROR =          15862.84


  PERCENT DISCREPANCY =              0.33    PERCENT DISCREPANCY =              0.23



1
 SUMMARY VOLUMETRIC BUDGET FOR GSFLOW 
 DATE: 12 22 1983              CUMULATIVE TIME STEP:    1178
 MODFLOW STRESS PERIOD      1     CURRENT TIME STEP:      21     ITERATIONS:      21

 -----------------------------------------------------------------------------------

   CUMULATIVE VOLUMES               L**3   RATES FOR THIS TIME STEP           L**3/T
   ------------------                      ------------------------

                                     IN                                         IN
                                     --                                         --
        PRECIPITATION =        1.7590D+08          PRECIPITATION =        6396323.79
           STREAMFLOW =                               STREAMFLOW =                  
     GW BOUNDARY FLOW =                         GW BOUNDARY FLOW =                  


                                    OUT                                        OUT
                                    ---                                        ---
   EVAPOTRANSPIRATION =        1.3546D+07     EVAPOTRANSPIRATION =          69348.61
           STREAMFLOW =        1.1182D+08             STREAMFLOW =        5480523.50
     GW BOUNDARY FLOW =                         GW BOUNDARY FLOW =                  

   INFLOWS - OUTFLOWS =        5.0530D+07     INFLOWS - OUTFLOWS =         846451.68
             --------                                   --------

 TOTAL STORAGE CHANGE =        4.9725D+07         STORAGE CHANGE =         816793.63
       --------------                             --------------
         LAND SURFACE =        1.1120D+08           LAND SURFACE =        4730617.27
            SOIL ZONE =        2447385.13              SOIL ZONE =        -139692.81
     UNSATURATED ZONE =        1172578.73       UNSATURATED ZONE =          21106.61
       SATURATED ZONE =       -2595123.43         SATURATED ZONE =        -160204.70
                LAKES =       -6.2504D+07                  LAKES =       -3635032.75

 OVERALL BUDGET ERROR =         805518.41           BUDGET ERROR =          29658.05


  PERCENT DISCREPANCY =              0.46    PERCENT DISCREPANCY =              0.46



1
 SUMMARY VOLUMETRIC BUDGET FOR GSFLOW 
 DATE: 12 29 1983              CUMULATIVE TIME STEP:    1185
 MODFLOW STRESS PERIOD      1     CURRENT TIME STEP:      28     ITERATIONS:       6

 -----------------------------------------------------------------------------------

   CUMULATIVE VOLUMES               L**3   RATES FOR THIS TIME STEP           L**3/T
   ------------------                      ------------------------

                                     IN                                         IN
                                     --                                         --
        PRECIPITATION =        3.5500D+08          PRECIPITATION =        6396323.79
           STREAMFLOW =                               STREAMFLOW =                  
     GW BOUNDARY FLOW =                         GW BOUNDARY FLOW =                  


                                    OUT                                        OUT
                                    ---                                        ---
   EVAPOTRANSPIRATION =        1.6018D+07     EVAPOTRANSPIRATION =         286283.92
           STREAMFLOW =        1.5117D+08             STREAMFLOW =        5676565.00
     GW BOUNDARY FLOW =                         GW BOUNDARY FLOW =                  

   INFLOWS - OUTFLOWS =        1.8781D+08     INFLOWS - OUTFLOWS =         433474.86
             --------                                   --------

 TOTAL STORAGE CHANGE =        1.8670D+08         STORAGE CHANGE =         401885.17
       --------------                             --------------
         LAND SURFACE =        2.3808D+08           LAND SURFACE =        4519035.52
            SOIL ZONE =        3188234.10              SOIL ZONE =        -131136.26
     UNSATURATED ZONE =        1477944.50       UNSATURATED ZONE =          31690.36
       SATURATED ZONE =       -3231098.80         SATURATED ZONE =        -171341.95
                LAKES =       -5.2811D+07                  LAKES =       -3846362.50

 OVERALL BUDGET ERROR =        1105288.09           BUDGET ERROR =          31589.69


  PERCENT DISCREPANCY =              0.31    PERCENT DISCREPANCY =              0.50



1
 SUMMARY VOLUMETRIC BUDGET FOR GSFLOW 
 DATE: 01 05 1984              CUMULATIVE TIME STEP:    1192
 MODFLOW STRESS PERIOD      1     CURRENT TIME STEP:      35     ITERATIONS:       4

 -----------------------------------------------------------------------------------

   CUMULATIVE VOLUMES               L**3   RATES FOR THIS TIME STEP           L**3/T
   ------------------                      ------------------------

                                     IN                                         IN
                                     --                                         --
        PRECIPITATION =        3.7719D+08          PRECIPITATION =                  
           STREAMFLOW =                               STREAMFLOW =                  
     GW BOUNDARY FLOW =                         GW BOUNDARY FLOW =                  


                                    OUT                                        OUT
                                    ---                                        ---
   EVAPOTRANSPIRATION =        2.5511D+07     EVAPOTRANSPIRATION =        1973575.79
           STREAMFLOW =        1.9030D+08             STREAMFLOW =        5407227.00
     GW BOUNDARY FLOW =                         GW BOUNDARY FLOW =                  

   INFLOWS - OUTFLOWS =        1.6137D+08     INFLOWS - OUTFLOWS =       -7380802.79
             --------                                   --------

 TOTAL STORAGE CHANGE =        1.6003D+08         STORAGE CHANGE =       -7413504.70
       --------------                             --------------
         LAND SURFACE =        2.4136D+08           LAND SURFACE =       -1752140.32
            SOIL ZONE =        4233557.47              SOIL ZONE =         145731.72
     UNSATURATED ZONE =        2025703.01       UNSATURATED ZONE =          48892.50
       SATURATED ZONE =       -4054159.87         SATURATED ZONE =        -151242.61
                LAKES =       -8.3543D+07                  LAKES =       -5704746.00

 OVERALL BUDGET ERROR =        1345993.99           BUDGET ERROR =          32701.90


  PERCENT DISCREPANCY =              0.36    PERCENT DISCREPANCY =              0.44



1
 SUMMARY VOLUMETRIC BUDGET FOR GSFLOW 
 DATE: 01 12 1984              CUMULATIVE TIME STEP:    1199
 MODFLOW STRESS PERIOD      1     CURRENT TIME STEP:      42     ITERATIONS:       4

 -----------------------------------------------------------------------------------

   CUMULATIVE VOLUMES               L**3   RATES FOR THIS TIME STEP           L**3/T
   ------------------                      ------------------------

                                     IN                                         IN
                                     --                                         --
        PRECIPITATION =        3.7719D+08          PRECIPITATION =                  
           STREAMFLOW =                               STREAMFLOW =                  
     GW BOUNDARY FLOW =                         GW BOUNDARY FLOW =                  


                                    OUT                                        OUT
                                    ---                                        ---
   EVAPOTRANSPIRATION =        3.6281D+07     EVAPOTRANSPIRATION =         799023.85
           STREAMFLOW =        2.2725D+08             STREAMFLOW =        5186898.50
     GW BOUNDARY FLOW =                         GW BOUNDARY FLOW =                  

   INFLOWS - OUTFLOWS =        1.1366D+08     INFLOWS - OUTFLOWS =       -5985922.35
             --------                                   --------

 TOTAL STORAGE CHANGE =        1.1211D+08         STORAGE CHANGE =       -6008339.48
       --------------                             --------------
         LAND SURFACE =        2.3090D+08           LAND SURFACE =        -454357.72
            SOIL ZONE =        4937885.69              SOIL ZONE =        -185388.18
     UNSATURATED ZONE =        2372509.49       UNSATURATED ZONE =          27296.99
       SATURATED ZONE =       -4825173.89         SATURATED ZONE =        -158471.56
                LAKES =       -1.2128D+08                  LAKES =       -5237419.00

 OVERALL BUDGET ERROR =        1548614.52           BUDGET ERROR =          22417.14


  PERCENT DISCREPANCY =              0.41    PERCENT DISCREPANCY =              0.37



1
 SUMMARY VOLUMETRIC BUDGET FOR GSFLOW 
 DATE: 01 19 1984              CUMULATIVE TIME STEP:    1206
 MODFLOW STRESS PERIOD      1     CURRENT TIME STEP:      49     ITERATIONS:      18

 -----------------------------------------------------------------------------------

   CUMULATIVE VOLUMES               L**3   RATES FOR THIS TIME STEP           L**3/T
   ------------------                      ------------------------

                                     IN                                         IN
                                     --                                         --
        PRECIPITATION =        4.0419D+08          PRECIPITATION =                  
           STREAMFLOW =                               STREAMFLOW =                  
     GW BOUNDARY FLOW =                         GW BOUNDARY FLOW =                  


                                    OUT                                        OUT
                                    ---                                        ---
   EVAPOTRANSPIRATION =        3.9131D+07     EVAPOTRANSPIRATION =         842072.37
           STREAMFLOW =        2.6253D+08             STREAMFLOW =        4966639.50
     GW BOUNDARY FLOW =                         GW BOUNDARY FLOW =                  

   INFLOWS - OUTFLOWS =        1.0253D+08     INFLOWS - OUTFLOWS =       -5808711.87
             --------                                   --------

 TOTAL STORAGE CHANGE =        1.0088D+08         STORAGE CHANGE =       -5814997.50
       --------------                             --------------
         LAND SURFACE =        2.4907D+08           LAND SURFACE =        -512933.76
            SOIL ZONE =        4127977.89              SOIL ZONE =         -87372.24
     UNSATURATED ZONE =        2346196.02       UNSATURATED ZONE =         -33767.11
       SATURATED ZONE =       -5838719.36         SATURATED ZONE =        -132690.89
                LAKES =       -1.4883D+08                  LAKES =       -5048233.50

 OVERALL BUDGET ERROR =        1657706.66           BUDGET ERROR =           6285.62


  PERCENT DISCREPANCY =              0.41    PERCENT DISCREPANCY =              0.11



1
 SUMMARY VOLUMETRIC BUDGET FOR GSFLOW 
 DATE: 01 26 1984              CUMULATIVE TIME STEP:    1213
 MODFLOW STRESS PERIOD      1     CURRENT TIME STEP:      56     ITERATIONS:       3

 -----------------------------------------------------------------------------------

   CUMULATIVE VOLUMES               L**3   RATES FOR THIS TIME STEP           L**3/T
   ------------------                      ------------------------

                                     IN                                         IN
                                     --                                         --
        PRECIPITATION =        4.0719D+08          PRECIPITATION =                  
           STREAMFLOW =                               STREAMFLOW =                  
     GW BOUNDARY FLOW =                         GW BOUNDARY FLOW =                  


                                    OUT                                        OUT
                                    ---                                        ---
   EVAPOTRANSPIRATION =        4.7199D+07     EVAPOTRANSPIRATION =        1806358.10
           STREAMFLOW =        2.9715D+08             STREAMFLOW =        4893216.50
     GW BOUNDARY FLOW =                         GW BOUNDARY FLOW =                  

   INFLOWS - OUTFLOWS =        6.2846D+07     INFLOWS - OUTFLOWS =       -6699574.60
             --------                                   --------

 TOTAL STORAGE CHANGE =        6.1111D+07         STORAGE CHANGE =       -6710577.41
       --------------                             --------------
         LAND SURFACE =        2.4654D+08           LAND SURFACE =       -1135154.22
            SOIL ZONE =        3652350.33              SOIL ZONE =         -51387.44
     UNSATURATED ZONE =        2101688.55       UNSATURATED ZONE =         -36182.92
       SATURATED ZONE =       -6842640.39         SATURATED ZONE =        -151715.33
                LAKES =       -1.8434D+08                  LAKES =       -5336137.50

 OVERALL BUDGET ERROR =        1734410.35           BUDGET ERROR =          11002.81


  PERCENT DISCREPANCY =              0.43    PERCENT DISCREPANCY =              0.16



 Number of time steps:     60;  Number of non-convergence:   0
 MF iterations:           530;  SZ iterations:             532
 Average MF iterations:  8.83;  Average SZ iterations:    8.87
 Maximum MF iterations:    38;  Maximum SZ iterations:      38

MF iteration distribution:      0    4    5   11    3    7    2    4    5    4
                                1    1    1    1    1    2    1    1    1    1
                                2    0    0    1    0    0    0    0    0    0
                                0    0    0    0    0    0    0    1    0    0
                                0    0    0    0    0    0    0    0    0    0
                                0    0    0    0    0    0    0    0    0    0
                                0    0    0    0    0    0    0    0    0    0
                                0    0    0    0    0    0    0    0    0    0

SZ computation distribution:    0    4    5   11    3    7    1    5    5    4
                                1    0    2    1    1    2    1    1    1    1
                                2    0    0    1    0    0    0    0    0    0
                                0    0    0    0    0    0    0    1    0    0
                                0    0    0    0    0    0    0    0    0    0
                                0    0    0    0    0    0    0    0    0    0
                                0    0    0    0    0    0    0    0    0    0
                                0    0    0    0    0    0    0    0    0    0

