1
 SUMMARY VOLUMETRIC BUDGET FOR GSFLOW 
 DATE: 12 01 1983              CUMULATIVE TIME STEP:    1157
 MODFLOW STRESS PERIOD      1     CURRENT TIME STEP:       7     ITERATIONS:      10

 -----------------------------------------------------------------------------------

   CUMULATIVE VOLUMES               L**3   RATES FOR THIS TIME STEP           L**3/T
   ------------------                      ------------------------

                                     IN                                         IN
                                     --                                         --
        PRECIPITATION =        2.5846D+07          PRECIPITATION =                  
           STREAMFLOW =                               STREAMFLOW =                  
     GW BOUNDARY FLOW =                         GW BOUNDARY FLOW =                  


                                    OUT                                        OUT
                                    ---                                        ---
   EVAPOTRANSPIRATION =        3707099.03     EVAPOTRANSPIRATION =        1038086.83
           STREAMFLOW =        3.2981D+07             STREAMFLOW =        5040038.00
     GW BOUNDARY FLOW =                         GW BOUNDARY FLOW =                  

   INFLOWS - OUTFLOWS =       -1.0842D+07     INFLOWS - OUTFLOWS =       -6078124.83
             --------                                   --------

 TOTAL STORAGE CHANGE =       -1.1158D+07         STORAGE CHANGE =       -6034907.89
       --------------                             --------------
         LAND SURFACE =        1.7426D+07           LAND SURFACE =        -529576.67
            SOIL ZONE =        -786173.08              SOIL ZONE =         -94345.28
     UNSATURATED ZONE =         142653.03       UNSATURATED ZONE =         -16151.13
       SATURATED ZONE =       -1167984.12         SATURATED ZONE =        -142612.81
                LAKES =       -2.6773D+07                  LAKES =       -5252222.00

 OVERALL BUDGET ERROR =         316054.45           BUDGET ERROR =         -43216.93


  PERCENT DISCREPANCY =              0.86    PERCENT DISCREPANCY =             -0.71



