1
 SUMMARY VOLUMETRIC BUDGET FOR GSFLOW 
 DATE: 10 13 1983              CUMULATIVE TIME STEP:    1108
 MODFLOW STRESS PERIOD      1     CURRENT TIME STEP:       7     ITERATIONS:      11

 -----------------------------------------------------------------------------------

   CUMULATIVE VOLUMES               L**3   RATES FOR THIS TIME STEP           L**3/T
   ------------------                      ------------------------

                                     IN                                         IN
                                     --                                         --
        PRECIPITATION =                            PRECIPITATION =                  
           STREAMFLOW =                               STREAMFLOW =                  
     GW BOUNDARY FLOW =                         GW BOUNDARY FLOW =                  


                                    OUT                                        OUT
                                    ---                                        ---
   EVAPOTRANSPIRATION =        1.3992D+07     EVAPOTRANSPIRATION =        1901556.98
           STREAMFLOW =        2638013.31             STREAMFLOW =         381722.84
     GW BOUNDARY FLOW =                         GW BOUNDARY FLOW =                  

   INFLOWS - OUTFLOWS =       -1.6630D+07     INFLOWS - OUTFLOWS =       -2283279.82
             --------                                   --------

 TOTAL STORAGE CHANGE =       -1.6627D+07         STORAGE CHANGE =       -2274689.83
       --------------                             --------------
         LAND SURFACE =        -101621.52           LAND SURFACE =         -20935.08
            SOIL ZONE =       -6871986.82              SOIL ZONE =        -866089.81
     UNSATURATED ZONE =        -420147.86       UNSATURATED ZONE =         -68153.73
       SATURATED ZONE =       -1439624.22         SATURATED ZONE =        -201549.33
                LAKES =       -7793254.38                  LAKES =       -1117961.88

 OVERALL BUDGET ERROR =          -2965.41           BUDGET ERROR =          -8590.00


  PERCENT DISCREPANCY =             -0.02    PERCENT DISCREPANCY =             -0.38



