1
 SUMMARY VOLUMETRIC BUDGET FOR GSFLOW 
 DATE: 11 24 1983              CUMULATIVE TIME STEP:    1150
 MODFLOW STRESS PERIOD      1     CURRENT TIME STEP:       7     ITERATIONS:       3

 -----------------------------------------------------------------------------------

   CUMULATIVE VOLUMES               L**3   RATES FOR THIS TIME STEP           L**3/T
   ------------------                      ------------------------

                                     IN                                         IN
                                     --                                         --
        PRECIPITATION =        1.6154D+08          PRECIPITATION =        4.5230D+07
           STREAMFLOW =                               STREAMFLOW =                  
     GW BOUNDARY FLOW =                         GW BOUNDARY FLOW =                  


                                    OUT                                        OUT
                                    ---                                        ---
   EVAPOTRANSPIRATION =        2164531.45     EVAPOTRANSPIRATION =         483270.88
           STREAMFLOW =        2.9240D+07             STREAMFLOW =        4453044.50
     GW BOUNDARY FLOW =                         GW BOUNDARY FLOW =                  

   INFLOWS - OUTFLOWS =        1.3013D+08     INFLOWS - OUTFLOWS =        4.0294D+07
             --------                                   --------

 TOTAL STORAGE CHANGE =        1.2926D+08         STORAGE CHANGE =        4.0110D+07
       --------------                             --------------
         LAND SURFACE =        1.1908D+08           LAND SURFACE =        3.3650D+07
            SOIL ZONE =        -665106.50              SOIL ZONE =         -62519.84
     UNSATURATED ZONE =         556631.74       UNSATURATED ZONE =          51853.16
       SATURATED ZONE =       -1391152.62         SATURATED ZONE =        -180051.95
                LAKES =        1.1678D+07                  LAKES =        6650073.50

 OVERALL BUDGET ERROR =         871308.71           BUDGET ERROR =         184358.48


  PERCENT DISCREPANCY =              0.54    PERCENT DISCREPANCY =              0.41



