1
 SUMMARY VOLUMETRIC BUDGET FOR GSFLOW 
 DATE: 10 20 1983              CUMULATIVE TIME STEP:    1115
 MODFLOW STRESS PERIOD      1     CURRENT TIME STEP:       7     ITERATIONS:      12

 -----------------------------------------------------------------------------------

   CUMULATIVE VOLUMES               L**3   RATES FOR THIS TIME STEP           L**3/T
   ------------------                      ------------------------

                                     IN                                         IN
                                     --                                         --
        PRECIPITATION =        3360552.25          PRECIPITATION =                  
           STREAMFLOW =                               STREAMFLOW =                  
     GW BOUNDARY FLOW =                         GW BOUNDARY FLOW =                  


                                    OUT                                        OUT
                                    ---                                        ---
   EVAPOTRANSPIRATION =        8870511.30     EVAPOTRANSPIRATION =        1566357.87
           STREAMFLOW =        2848361.97             STREAMFLOW =         445328.69
     GW BOUNDARY FLOW =                         GW BOUNDARY FLOW =                  

   INFLOWS - OUTFLOWS =       -8358321.02     INFLOWS - OUTFLOWS =       -2011686.55
             --------                                   --------

 TOTAL STORAGE CHANGE =       -8412602.56         STORAGE CHANGE =       -2006694.18
       --------------                             --------------
         LAND SURFACE =         -55897.54           LAND SURFACE =         -17364.60
            SOIL ZONE =       -1163427.73              SOIL ZONE =        -592064.96
     UNSATURATED ZONE =        -386355.99       UNSATURATED ZONE =         -77374.95
       SATURATED ZONE =       -1235933.95         SATURATED ZONE =        -171447.78
                LAKES =       -5570987.34                  LAKES =       -1148441.88

 OVERALL BUDGET ERROR =          54281.54           BUDGET ERROR =          -4992.37


  PERCENT DISCREPANCY =              0.46    PERCENT DISCREPANCY =             -0.25



