1
 SUMMARY VOLUMETRIC BUDGET FOR GSFLOW 
 DATE: 11 10 1983              CUMULATIVE TIME STEP:    1136
 MODFLOW STRESS PERIOD      1     CURRENT TIME STEP:       7     ITERATIONS:      11

 -----------------------------------------------------------------------------------

   CUMULATIVE VOLUMES               L**3   RATES FOR THIS TIME STEP           L**3/T
   ------------------                      ------------------------

                                     IN                                         IN
                                     --                                         --
        PRECIPITATION =        1.0338D+08          PRECIPITATION =        8.7230D+07
           STREAMFLOW =                               STREAMFLOW =                  
     GW BOUNDARY FLOW =                         GW BOUNDARY FLOW =                  


                                    OUT                                        OUT
                                    ---                                        ---
   EVAPOTRANSPIRATION =        7983787.09     EVAPOTRANSPIRATION =         392043.37
           STREAMFLOW =        1.7081D+07             STREAMFLOW =        2997192.50
     GW BOUNDARY FLOW =                         GW BOUNDARY FLOW =                  

   INFLOWS - OUTFLOWS =        7.8319D+07     INFLOWS - OUTFLOWS =        8.3841D+07
             --------                                   --------

 TOTAL STORAGE CHANGE =        7.2441D+07         STORAGE CHANGE =        8.3220D+07
       --------------                             --------------
         LAND SURFACE =        4.8915D+07           LAND SURFACE =        4.6421D+07
            SOIL ZONE =        5629963.77              SOIL ZONE =        7532158.87
     UNSATURATED ZONE =         444641.63       UNSATURATED ZONE =         191062.84
       SATURATED ZONE =        -561163.94         SATURATED ZONE =         755718.25
                LAKES =        1.8012D+07                  LAKES =        2.8320D+07

 OVERALL BUDGET ERROR =        5878607.65           BUDGET ERROR =         620756.83

  ***WARNING, CUMULATIVE VOLUME OFF > 5%

  PERCENT DISCREPANCY =              5.85    PERCENT DISCREPANCY =              0.71



