1
 SUMMARY VOLUMETRIC BUDGET FOR GSFLOW 
 DATE: 11 10 1983              CUMULATIVE TIME STEP:    1136
 MODFLOW STRESS PERIOD      1     CURRENT TIME STEP:       7     ITERATIONS:      14

 -----------------------------------------------------------------------------------

   CUMULATIVE VOLUMES               L**3   RATES FOR THIS TIME STEP           L**3/T
   ------------------                      ------------------------

                                     IN                                         IN
                                     --                                         --
        PRECIPITATION =        1.0338D+08          PRECIPITATION =        8.7230D+07
           STREAMFLOW =                               STREAMFLOW =                  
     GW BOUNDARY FLOW =                         GW BOUNDARY FLOW =                  


                                    OUT                                        OUT
                                    ---                                        ---
   EVAPOTRANSPIRATION =        1.3637D+07     EVAPOTRANSPIRATION =         645203.39
           STREAMFLOW =        1.7081D+07             STREAMFLOW =        2997192.50
     GW BOUNDARY FLOW =                         GW BOUNDARY FLOW =                  

   INFLOWS - OUTFLOWS =        7.2666D+07     INFLOWS - OUTFLOWS =        8.3587D+07
             --------                                   --------

 TOTAL STORAGE CHANGE =        7.2528D+07         STORAGE CHANGE =        8.3552D+07
       --------------                             --------------
         LAND SURFACE =        4.9517D+07           LAND SURFACE =        4.6419D+07
            SOIL ZONE =        5608036.46              SOIL ZONE =        7549590.74
     UNSATURATED ZONE =         369674.66       UNSATURATED ZONE =         157183.70
       SATURATED ZONE =        -699615.78         SATURATED ZONE =         804831.06
                LAKES =        1.7732D+07                  LAKES =        2.8621D+07

 OVERALL BUDGET ERROR =         138252.42           BUDGET ERROR =          35454.60


  PERCENT DISCREPANCY =              0.13    PERCENT DISCREPANCY =              0.04



 Number of time steps:      7;  Number of non-convergence:   0
 MF iterations:            60;  SZ iterations:              60
 Average MF iterations:  8.57;  Average SZ iterations:    8.57
 Maximum MF iterations:    15;  Maximum SZ iterations:      15

MF iteration distribution:      0    0    1    1    1    0    0    0    1    1
                                0    0    0    1    1    0    0    0    0    0
                                0    0    0    0    0    0    0    0    0    0
                                0    0    0    0    0    0    0    0    0    0
                                0    0    0    0    0    0    0    0    0    0
                                0    0    0    0    0    0    0    0    0    0
                                0    0    0    0    0    0    0    0    0    0
                                0    0    0    0    0    0    0    0    0    0

SZ computation distribution:    0    0    1    1    1    0    0    0    1    1
                                0    0    0    1    1    0    0    0    0    0
                                0    0    0    0    0    0    0    0    0    0
                                0    0    0    0    0    0    0    0    0    0
                                0    0    0    0    0    0    0    0    0    0
                                0    0    0    0    0    0    0    0    0    0
                                0    0    0    0    0    0    0    0    0    0
                                0    0    0    0    0    0    0    0    0    0

