1
 SUMMARY VOLUMETRIC BUDGET FOR GSFLOW 
 DATE: 10 27 1983              CUMULATIVE TIME STEP:    1122
 MODFLOW STRESS PERIOD      1     CURRENT TIME STEP:       7     ITERATIONS:      12

 -----------------------------------------------------------------------------------

   CUMULATIVE VOLUMES               L**3   RATES FOR THIS TIME STEP           L**3/T
   ------------------                      ------------------------

                                     IN                                         IN
                                     --                                         --
        PRECIPITATION =        6721104.51          PRECIPITATION =        3360552.25
           STREAMFLOW =                               STREAMFLOW =                  
     GW BOUNDARY FLOW =                         GW BOUNDARY FLOW =                  


                                    OUT                                        OUT
                                    ---                                        ---
   EVAPOTRANSPIRATION =        9664210.53     EVAPOTRANSPIRATION =        1258337.29
           STREAMFLOW =        2525623.48             STREAMFLOW =         198412.37
     GW BOUNDARY FLOW =                         GW BOUNDARY FLOW =                  

   INFLOWS - OUTFLOWS =       -5468729.51     INFLOWS - OUTFLOWS =        1903802.59
             --------                                   --------

 TOTAL STORAGE CHANGE =       -5531596.10         STORAGE CHANGE =        1904210.64
       --------------                             --------------
         LAND SURFACE =         217076.30           LAND SURFACE =         296986.21
            SOIL ZONE =         303586.08              SOIL ZONE =        1230420.51
     UNSATURATED ZONE =        -309706.24       UNSATURATED ZONE =         -61546.12
       SATURATED ZONE =       -1167356.44         SATURATED ZONE =         -90530.95
                LAKES =       -4575195.81                  LAKES =         528881.00

 OVERALL BUDGET ERROR =          62866.59           BUDGET ERROR =           -408.06


  PERCENT DISCREPANCY =              0.51    PERCENT DISCREPANCY =             -0.01



