1
 SUMMARY VOLUMETRIC BUDGET FOR GSFLOW 
 DATE: 10 13 1983              CUMULATIVE TIME STEP:    1108
 MODFLOW STRESS PERIOD      1     CURRENT TIME STEP:       7     ITERATIONS:      13

 -----------------------------------------------------------------------------------

   CUMULATIVE VOLUMES               L**3   RATES FOR THIS TIME STEP           L**3/T
   ------------------                      ------------------------

                                     IN                                         IN
                                     --                                         --
        PRECIPITATION =                            PRECIPITATION =                  
           STREAMFLOW =                               STREAMFLOW =                  
     GW BOUNDARY FLOW =                         GW BOUNDARY FLOW =                  


                                    OUT                                        OUT
                                    ---                                        ---
   EVAPOTRANSPIRATION =        1.4082D+07     EVAPOTRANSPIRATION =        1921496.13
           STREAMFLOW =        2638013.31             STREAMFLOW =         381722.84
     GW BOUNDARY FLOW =                         GW BOUNDARY FLOW =                  

   INFLOWS - OUTFLOWS =       -1.6720D+07     INFLOWS - OUTFLOWS =       -2303218.97
             --------                                   --------

 TOTAL STORAGE CHANGE =       -1.6726D+07         STORAGE CHANGE =       -2308582.39
       --------------                             --------------
         LAND SURFACE =        -101621.52           LAND SURFACE =         -20935.08
            SOIL ZONE =       -6926476.38              SOIL ZONE =        -881823.88
     UNSATURATED ZONE =        -426937.87       UNSATURATED ZONE =         -63205.07
       SATURATED ZONE =       -1420859.88         SATURATED ZONE =        -203876.12
                LAKES =       -7850295.75                  LAKES =       -1138742.25

 OVERALL BUDGET ERROR =           6422.66           BUDGET ERROR =           5363.42


  PERCENT DISCREPANCY =              0.04    PERCENT DISCREPANCY =              0.23



