1
 SUMMARY VOLUMETRIC BUDGET FOR GSFLOW 
 DATE: 11 24 1983              CUMULATIVE TIME STEP:    1150
 MODFLOW STRESS PERIOD      1     CURRENT TIME STEP:       7     ITERATIONS:       2

 -----------------------------------------------------------------------------------

   CUMULATIVE VOLUMES               L**3   RATES FOR THIS TIME STEP           L**3/T
   ------------------                      ------------------------

                                     IN                                         IN
                                     --                                         --
        PRECIPITATION =        1.6154D+08          PRECIPITATION =        4.5230D+07
           STREAMFLOW =                               STREAMFLOW =                  
     GW BOUNDARY FLOW =                         GW BOUNDARY FLOW =                  


                                    OUT                                        OUT
                                    ---                                        ---
   EVAPOTRANSPIRATION =        2151376.75     EVAPOTRANSPIRATION =         479426.46
           STREAMFLOW =        2.9240D+07             STREAMFLOW =        4453044.50
     GW BOUNDARY FLOW =                         GW BOUNDARY FLOW =                  

   INFLOWS - OUTFLOWS =        1.3015D+08     INFLOWS - OUTFLOWS =        4.0298D+07
             --------                                   --------

 TOTAL STORAGE CHANGE =        3.2713D+08         STORAGE CHANGE =        4.0242D+07
       --------------                             --------------
         LAND SURFACE =        3.1646D+08           LAND SURFACE =        3.3640D+07
            SOIL ZONE =        -682470.18              SOIL ZONE =         -65635.12
     UNSATURATED ZONE =         557034.02       UNSATURATED ZONE =          58977.64
       SATURATED ZONE =       -1365758.73         SATURATED ZONE =        -177274.70
                LAKES =        1.2162D+07                  LAKES =        6786315.50

 OVERALL BUDGET ERROR =       -1.9699D+08           BUDGET ERROR =          55832.80

  ***WARNING, CUMULATIVE VOLUME OFF > 5%

  PERCENT DISCREPANCY =            -75.76    PERCENT DISCREPANCY =              0.12



 Number of time steps:      7;  Number of non-convergence:   0
 MF iterations:            37;  SZ iterations:              37
 Average MF iterations:  5.29;  Average SZ iterations:    5.29
 Maximum MF iterations:    12;  Maximum SZ iterations:      12

MF iteration distribution:      0    1    1    2    1    0    1    0    0    0
                                0    1    0    0    0    0    0    0    0    0
                                0    0    0    0    0    0    0    0    0    0
                                0    0    0    0    0    0    0    0    0    0
                                0    0    0    0    0    0    0    0    0    0
                                0    0    0    0    0    0    0    0    0    0
                                0    0    0    0    0    0    0    0    0    0
                                0    0    0    0    0    0    0    0    0    0

SZ computation distribution:    0    1    1    2    1    0    1    0    0    0
                                0    1    0    0    0    0    0    0    0    0
                                0    0    0    0    0    0    0    0    0    0
                                0    0    0    0    0    0    0    0    0    0
                                0    0    0    0    0    0    0    0    0    0
                                0    0    0    0    0    0    0    0    0    0
                                0    0    0    0    0    0    0    0    0    0
                                0    0    0    0    0    0    0    0    0    0

