1
 SUMMARY VOLUMETRIC BUDGET FOR GSFLOW 
 DATE: 11 17 1983              CUMULATIVE TIME STEP:    1143
 MODFLOW STRESS PERIOD      1     CURRENT TIME STEP:       7     ITERATIONS:       9

 -----------------------------------------------------------------------------------

   CUMULATIVE VOLUMES               L**3   RATES FOR THIS TIME STEP           L**3/T
   ------------------                      ------------------------

                                     IN                                         IN
                                     --                                         --
        PRECIPITATION =        2.0031D+08          PRECIPITATION =        6.1384D+07
           STREAMFLOW =                               STREAMFLOW =                  
     GW BOUNDARY FLOW =                         GW BOUNDARY FLOW =                  


                                    OUT                                        OUT
                                    ---                                        ---
   EVAPOTRANSPIRATION =        5071529.59     EVAPOTRANSPIRATION =         579496.07
           STREAMFLOW =        2.1368D+07             STREAMFLOW =        3182123.00
     GW BOUNDARY FLOW =                         GW BOUNDARY FLOW =                  

   INFLOWS - OUTFLOWS =        1.7387D+08     INFLOWS - OUTFLOWS =        5.7622D+07
             --------                                   --------

 TOTAL STORAGE CHANGE =        1.7299D+08         STORAGE CHANGE =        5.7371D+07
       --------------                             --------------
         LAND SURFACE =        1.3829D+08           LAND SURFACE =        4.4149D+07
            SOIL ZONE =        3901883.39              SOIL ZONE =         598135.99
     UNSATURATED ZONE =         862343.98       UNSATURATED ZONE =         136700.99
       SATURATED ZONE =       -1645073.08         SATURATED ZONE =        -115290.42
                LAKES =        3.1576D+07                  LAKES =        1.2602D+07

 OVERALL BUDGET ERROR =         877406.76           BUDGET ERROR =         251188.13


  PERCENT DISCREPANCY =              0.44    PERCENT DISCREPANCY =              0.41



