1
 SUMMARY VOLUMETRIC BUDGET FOR GSFLOW 
 DATE: 11 24 1983              CUMULATIVE TIME STEP:    1150
 MODFLOW STRESS PERIOD      1     CURRENT TIME STEP:       7     ITERATIONS:       3

 -----------------------------------------------------------------------------------

   CUMULATIVE VOLUMES               L**3   RATES FOR THIS TIME STEP           L**3/T
   ------------------                      ------------------------

                                     IN                                         IN
                                     --                                         --
        PRECIPITATION =        1.6154D+08          PRECIPITATION =        4.5230D+07
           STREAMFLOW =                               STREAMFLOW =                  
     GW BOUNDARY FLOW =                         GW BOUNDARY FLOW =                  


                                    OUT                                        OUT
                                    ---                                        ---
   EVAPOTRANSPIRATION =        2168631.94     EVAPOTRANSPIRATION =         484289.25
           STREAMFLOW =        2.9240D+07             STREAMFLOW =        4453044.50
     GW BOUNDARY FLOW =                         GW BOUNDARY FLOW =                  

   INFLOWS - OUTFLOWS =        1.3013D+08     INFLOWS - OUTFLOWS =        4.0293D+07
             --------                                   --------

 TOTAL STORAGE CHANGE =        1.2987D+08         STORAGE CHANGE =        4.0248D+07
       --------------                             --------------
         LAND SURFACE =        1.1908D+08           LAND SURFACE =        3.3650D+07
            SOIL ZONE =        -667205.27              SOIL ZONE =         -63384.29
     UNSATURATED ZONE =         589719.30       UNSATURATED ZONE =          60250.96
       SATURATED ZONE =       -1345197.45         SATURATED ZONE =        -177785.75
                LAKES =        1.2208D+07                  LAKES =        6778928.50

 OVERALL BUDGET ERROR =         260531.21           BUDGET ERROR =          44685.55


  PERCENT DISCREPANCY =              0.16    PERCENT DISCREPANCY =              0.10



