1
 SUMMARY VOLUMETRIC BUDGET FOR GSFLOW 
 DATE: 10 20 1983              CUMULATIVE TIME STEP:    1115
 MODFLOW STRESS PERIOD      1     CURRENT TIME STEP:       7     ITERATIONS:      15

 -----------------------------------------------------------------------------------

   CUMULATIVE VOLUMES               L**3   RATES FOR THIS TIME STEP           L**3/T
   ------------------                      ------------------------

                                     IN                                         IN
                                     --                                         --
        PRECIPITATION =        3360552.25          PRECIPITATION =                  
           STREAMFLOW =                               STREAMFLOW =                  
     GW BOUNDARY FLOW =                         GW BOUNDARY FLOW =                  


                                    OUT                                        OUT
                                    ---                                        ---
   EVAPOTRANSPIRATION =        8913864.46     EVAPOTRANSPIRATION =        1565145.42
           STREAMFLOW =        2848361.88             STREAMFLOW =         445328.69
     GW BOUNDARY FLOW =                         GW BOUNDARY FLOW =                  

   INFLOWS - OUTFLOWS =       -8401674.08     INFLOWS - OUTFLOWS =       -2010474.11
             --------                                   --------

 TOTAL STORAGE CHANGE =       -8516185.23         STORAGE CHANGE =       -2008280.07
       --------------                             --------------
         LAND SURFACE =         -49152.38           LAND SURFACE =         -15503.93
            SOIL ZONE =       -1260764.75              SOIL ZONE =        -603017.14
     UNSATURATED ZONE =        -382498.35       UNSATURATED ZONE =         -48177.27
       SATURATED ZONE =       -1279671.31         SATURATED ZONE =        -197489.47
                LAKES =       -5544098.44                  LAKES =       -1144092.25

 OVERALL BUDGET ERROR =         114511.15           BUDGET ERROR =          -2194.03


  PERCENT DISCREPANCY =              0.97    PERCENT DISCREPANCY =             -0.11



 Number of time steps:      7;  Number of non-convergence:   0
 MF iterations:            62;  SZ iterations:              62
 Average MF iterations:  8.86;  Average SZ iterations:    8.86
 Maximum MF iterations:    15;  Maximum SZ iterations:      15

MF iteration distribution:      0    0    1    0    1    0    0    0    1    3
                                0    0    0    0    1    0    0    0    0    0
                                0    0    0    0    0    0    0    0    0    0
                                0    0    0    0    0    0    0    0    0    0
                                0    0    0    0    0    0    0    0    0    0
                                0    0    0    0    0    0    0    0    0    0
                                0    0    0    0    0    0    0    0    0    0
                                0    0    0    0    0    0    0    0    0    0

SZ computation distribution:    0    0    1    0    1    0    0    0    1    3
                                0    0    0    0    1    0    0    0    0    0
                                0    0    0    0    0    0    0    0    0    0
                                0    0    0    0    0    0    0    0    0    0
                                0    0    0    0    0    0    0    0    0    0
                                0    0    0    0    0    0    0    0    0    0
                                0    0    0    0    0    0    0    0    0    0
                                0    0    0    0    0    0    0    0    0    0

