1
 SUMMARY VOLUMETRIC BUDGET FOR GSFLOW 
 DATE: 10 07 1980              CUMULATIVE TIME STEP:       7
 MODFLOW STRESS PERIOD      1     CURRENT TIME STEP:       7     ITERATIONS:      14

 -----------------------------------------------------------------------------------

   CUMULATIVE VOLUMES               L**3   RATES FOR THIS TIME STEP           L**3/T
   ------------------                      ------------------------

                                     IN                                         IN
                                     --                                         --
        PRECIPITATION =                            PRECIPITATION =                  
           STREAMFLOW =                               STREAMFLOW =                  
     GW BOUNDARY FLOW =                         GW BOUNDARY FLOW =                  


                                    OUT                                        OUT
                                    ---                                        ---
   EVAPOTRANSPIRATION =        1.5783D+07     EVAPOTRANSPIRATION =        1470849.32
           STREAMFLOW =        1672059.06             STREAMFLOW =         183556.66
     GW BOUNDARY FLOW =                         GW BOUNDARY FLOW =                  

   INFLOWS - OUTFLOWS =       -1.7455D+07     INFLOWS - OUTFLOWS =       -1654405.97
             --------                                   --------

 TOTAL STORAGE CHANGE =       -1.7406D+07         STORAGE CHANGE =       -1647932.88
       --------------                             --------------
         LAND SURFACE =                             LAND SURFACE =                  
            SOIL ZONE =       -5732323.73              SOIL ZONE =        -268682.63
     UNSATURATED ZONE =       -1424510.88       UNSATURATED ZONE =         -62847.51
       SATURATED ZONE =       -1301586.53         SATURATED ZONE =        -269692.38
                LAKES =       -8947472.75                  LAKES =       -1046710.38

 OVERALL BUDGET ERROR =         -49407.01           BUDGET ERROR =          -6473.09


  PERCENT DISCREPANCY =             -0.28    PERCENT DISCREPANCY =             -0.39



1
 SUMMARY VOLUMETRIC BUDGET FOR GSFLOW 
 DATE: 10 14 1980              CUMULATIVE TIME STEP:      14
 MODFLOW STRESS PERIOD      1     CURRENT TIME STEP:      14     ITERATIONS:       3

 -----------------------------------------------------------------------------------

   CUMULATIVE VOLUMES               L**3   RATES FOR THIS TIME STEP           L**3/T
   ------------------                      ------------------------

                                     IN                                         IN
                                     --                                         --
        PRECIPITATION =        1.3442D+07          PRECIPITATION =        6721104.51
           STREAMFLOW =                               STREAMFLOW =                  
     GW BOUNDARY FLOW =                         GW BOUNDARY FLOW =                  


                                    OUT                                        OUT
                                    ---                                        ---
   EVAPOTRANSPIRATION =        2.3405D+07     EVAPOTRANSPIRATION =         499270.55
           STREAMFLOW =        2279257.81             STREAMFLOW =          34825.50
     GW BOUNDARY FLOW =                         GW BOUNDARY FLOW =                  

   INFLOWS - OUTFLOWS =       -1.2242D+07     INFLOWS - OUTFLOWS =        6187008.46
             --------                                   --------

 TOTAL STORAGE CHANGE =       -1.2348D+07         STORAGE CHANGE =        6122265.04
       --------------                             --------------
         LAND SURFACE =        2552191.86           LAND SURFACE =        1584944.65
            SOIL ZONE =         -50354.87              SOIL ZONE =        2954262.88
     UNSATURATED ZONE =       -1865963.47       UNSATURATED ZONE =         -57212.88
       SATURATED ZONE =       -2733211.78         SATURATED ZONE =        -123927.36
                LAKES =       -1.0250D+07                  LAKES =        1764197.75

 OVERALL BUDGET ERROR =         105487.97           BUDGET ERROR =          64743.42


  PERCENT DISCREPANCY =              0.41    PERCENT DISCREPANCY =              0.97



1
 SUMMARY VOLUMETRIC BUDGET FOR GSFLOW 
 DATE: 10 21 1980              CUMULATIVE TIME STEP:      21
 MODFLOW STRESS PERIOD      1     CURRENT TIME STEP:      21     ITERATIONS:       3

 -----------------------------------------------------------------------------------

   CUMULATIVE VOLUMES               L**3   RATES FOR THIS TIME STEP           L**3/T
   ------------------                      ------------------------

                                     IN                                         IN
                                     --                                         --
        PRECIPITATION =        1.6803D+07          PRECIPITATION =                  
           STREAMFLOW =                               STREAMFLOW =                  
     GW BOUNDARY FLOW =                         GW BOUNDARY FLOW =                  


                                    OUT                                        OUT
                                    ---                                        ---
   EVAPOTRANSPIRATION =        3.0303D+07     EVAPOTRANSPIRATION =        1446838.74
           STREAMFLOW =        3039697.04             STREAMFLOW =         364392.81
     GW BOUNDARY FLOW =                         GW BOUNDARY FLOW =                  

   INFLOWS - OUTFLOWS =       -1.6540D+07     INFLOWS - OUTFLOWS =       -1811231.55
             --------                                   --------

 TOTAL STORAGE CHANGE =       -1.6706D+07         STORAGE CHANGE =       -1815282.98
       --------------                             --------------
         LAND SURFACE =         582235.13           LAND SURFACE =        -191386.43
            SOIL ZONE =        -311887.75              SOIL ZONE =        -634902.61
     UNSATURATED ZONE =       -2302256.15       UNSATURATED ZONE =         -58724.46
       SATURATED ZONE =       -3784498.12         SATURATED ZONE =        -157738.48
                LAKES =       -1.0889D+07                  LAKES =        -772531.00

 OVERALL BUDGET ERROR =         165225.42           BUDGET ERROR =           4051.43


  PERCENT DISCREPANCY =              0.49    PERCENT DISCREPANCY =              0.22



1
 SUMMARY VOLUMETRIC BUDGET FOR GSFLOW 
 DATE: 10 28 1980              CUMULATIVE TIME STEP:      28
 MODFLOW STRESS PERIOD      1     CURRENT TIME STEP:      28     ITERATIONS:       4

 -----------------------------------------------------------------------------------

   CUMULATIVE VOLUMES               L**3   RATES FOR THIS TIME STEP           L**3/T
   ------------------                      ------------------------

                                     IN                                         IN
                                     --                                         --
        PRECIPITATION =        4.0327D+07          PRECIPITATION =                  
           STREAMFLOW =                               STREAMFLOW =                  
     GW BOUNDARY FLOW =                         GW BOUNDARY FLOW =                  


                                    OUT                                        OUT
                                    ---                                        ---
   EVAPOTRANSPIRATION =        3.7240D+07     EVAPOTRANSPIRATION =         435550.34
           STREAMFLOW =        5483165.29             STREAMFLOW =         342843.62
     GW BOUNDARY FLOW =                         GW BOUNDARY FLOW =                  

   INFLOWS - OUTFLOWS =       -2396456.20     INFLOWS - OUTFLOWS =        -778393.97
             --------                                   --------

 TOTAL STORAGE CHANGE =       -2991838.06         STORAGE CHANGE =        -742577.73
       --------------                             --------------
         LAND SURFACE =        4873656.87           LAND SURFACE =        -161715.81
            SOIL ZONE =        7128399.86              SOIL ZONE =        -251894.42
     UNSATURATED ZONE =       -2590084.95       UNSATURATED ZONE =         -31589.37
       SATURATED ZONE =       -4552065.53         SATURATED ZONE =        -130436.45
                LAKES =       -7851744.31                  LAKES =        -166941.67

 OVERALL BUDGET ERROR =         595381.87           BUDGET ERROR =         -35816.24

  ***WARNING, FLUX RATES OFF > 3%

  PERCENT DISCREPANCY =              1.38    PERCENT DISCREPANCY =             -4.71



1
 SUMMARY VOLUMETRIC BUDGET FOR GSFLOW 
 DATE: 11 04 1980              CUMULATIVE TIME STEP:      35
 MODFLOW STRESS PERIOD      1     CURRENT TIME STEP:      35     ITERATIONS:       5

 -----------------------------------------------------------------------------------

   CUMULATIVE VOLUMES               L**3   RATES FOR THIS TIME STEP           L**3/T
   ------------------                      ------------------------

                                     IN                                         IN
                                     --                                         --
        PRECIPITATION =        5.0408D+07          PRECIPITATION =                  
           STREAMFLOW =                               STREAMFLOW =                  
     GW BOUNDARY FLOW =                         GW BOUNDARY FLOW =                  


                                    OUT                                        OUT
                                    ---                                        ---
   EVAPOTRANSPIRATION =        5.1909D+07     EVAPOTRANSPIRATION =        2777134.75
           STREAMFLOW =        7932060.41             STREAMFLOW =         350029.91
     GW BOUNDARY FLOW =                         GW BOUNDARY FLOW =                  

   INFLOWS - OUTFLOWS =       -9432296.81     INFLOWS - OUTFLOWS =       -3127164.65
             --------                                   --------

 TOTAL STORAGE CHANGE =       -1.0847D+07         STORAGE CHANGE =       -3119213.00
       --------------                             --------------
         LAND SURFACE =         253222.42           LAND SURFACE =         -53384.75
            SOIL ZONE =        4073409.74              SOIL ZONE =       -1768280.68
     UNSATURATED ZONE =       -2531586.59       UNSATURATED ZONE =         -43416.55
       SATURATED ZONE =       -5123135.66         SATURATED ZONE =        -239309.78
                LAKES =       -7518709.06                  LAKES =       -1014821.25

 OVERALL BUDGET ERROR =        1414502.34           BUDGET ERROR =          -7951.65


  PERCENT DISCREPANCY =              2.34    PERCENT DISCREPANCY =             -0.25



1
 SUMMARY VOLUMETRIC BUDGET FOR GSFLOW 
 DATE: 11 11 1980              CUMULATIVE TIME STEP:      42
 MODFLOW STRESS PERIOD      1     CURRENT TIME STEP:      42     ITERATIONS:       5

 -----------------------------------------------------------------------------------

   CUMULATIVE VOLUMES               L**3   RATES FOR THIS TIME STEP           L**3/T
   ------------------                      ------------------------

                                     IN                                         IN
                                     --                                         --
        PRECIPITATION =        7.9485D+07          PRECIPITATION =        3230734.65
           STREAMFLOW =                               STREAMFLOW =                  
     GW BOUNDARY FLOW =                         GW BOUNDARY FLOW =                  


                                    OUT                                        OUT
                                    ---                                        ---
   EVAPOTRANSPIRATION =        6.9496D+07     EVAPOTRANSPIRATION =        1674311.96
           STREAMFLOW =        9809686.88             STREAMFLOW =         250092.00
     GW BOUNDARY FLOW =                         GW BOUNDARY FLOW =                  

   INFLOWS - OUTFLOWS =         178997.68     INFLOWS - OUTFLOWS =        1306330.69
             --------                                   --------

 TOTAL STORAGE CHANGE =       -1596742.00         STORAGE CHANGE =        1197439.21
       --------------                             --------------
         LAND SURFACE =        3621835.70           LAND SURFACE =         -63920.04
            SOIL ZONE =        8753986.31              SOIL ZONE =         696070.42
     UNSATURATED ZONE =       -2577503.46       UNSATURATED ZONE =          36383.20
       SATURATED ZONE =       -5967457.23         SATURATED ZONE =         -34233.00
                LAKES =       -5427603.31                  LAKES =         563138.62

 OVERALL BUDGET ERROR =        1775739.68           BUDGET ERROR =         108891.48

  ***WARNING, FLUX RATES OFF > 3%

  PERCENT DISCREPANCY =              2.21    PERCENT DISCREPANCY =              3.43



1
 SUMMARY VOLUMETRIC BUDGET FOR GSFLOW 
 DATE: 11 18 1980              CUMULATIVE TIME STEP:      49
 MODFLOW STRESS PERIOD      1     CURRENT TIME STEP:      49     ITERATIONS:       3

 -----------------------------------------------------------------------------------

   CUMULATIVE VOLUMES               L**3   RATES FOR THIS TIME STEP           L**3/T
   ------------------                      ------------------------

                                     IN                                         IN
                                     --                                         --
        PRECIPITATION =        8.5946D+07          PRECIPITATION =                  
           STREAMFLOW =                               STREAMFLOW =                  
     GW BOUNDARY FLOW =                         GW BOUNDARY FLOW =                  


                                    OUT                                        OUT
                                    ---                                        ---
   EVAPOTRANSPIRATION =        7.5647D+07     EVAPOTRANSPIRATION =        1484282.52
           STREAMFLOW =        1.1638D+07             STREAMFLOW =         312769.97
     GW BOUNDARY FLOW =                         GW BOUNDARY FLOW =                  

   INFLOWS - OUTFLOWS =       -1338932.38     INFLOWS - OUTFLOWS =       -1797052.49
             --------                                   --------

 TOTAL STORAGE CHANGE =       -2985900.87         STORAGE CHANGE =       -1769015.58
       --------------                             --------------
         LAND SURFACE =        4247190.46           LAND SURFACE =        -429064.21
            SOIL ZONE =        8186955.46              SOIL ZONE =        -641321.77
     UNSATURATED ZONE =       -2526972.87       UNSATURATED ZONE =          14995.46
       SATURATED ZONE =       -7199820.70         SATURATED ZONE =        -170475.38
                LAKES =       -5693253.21                  LAKES =        -543149.69

 OVERALL BUDGET ERROR =        1646968.49           BUDGET ERROR =         -28036.91


  PERCENT DISCREPANCY =              1.87    PERCENT DISCREPANCY =             -1.57



1
 SUMMARY VOLUMETRIC BUDGET FOR GSFLOW 
 DATE: 11 25 1980              CUMULATIVE TIME STEP:      56
 MODFLOW STRESS PERIOD      1     CURRENT TIME STEP:      56     ITERATIONS:       3

 -----------------------------------------------------------------------------------

   CUMULATIVE VOLUMES               L**3   RATES FOR THIS TIME STEP           L**3/T
   ------------------                      ------------------------

                                     IN                                         IN
                                     --                                         --
        PRECIPITATION =        8.9177D+07          PRECIPITATION =                  
           STREAMFLOW =                               STREAMFLOW =                  
     GW BOUNDARY FLOW =                         GW BOUNDARY FLOW =                  


                                    OUT                                        OUT
                                    ---                                        ---
   EVAPOTRANSPIRATION =        8.2370D+07     EVAPOTRANSPIRATION =         266873.60
           STREAMFLOW =        1.4055D+07             STREAMFLOW =         437097.72
     GW BOUNDARY FLOW =                         GW BOUNDARY FLOW =                  

   INFLOWS - OUTFLOWS =       -7247624.69     INFLOWS - OUTFLOWS =        -703971.32
             --------                                   --------

 TOTAL STORAGE CHANGE =       -8983461.66         STORAGE CHANGE =        -721341.13
       --------------                             --------------
         LAND SURFACE =        4128151.39           LAND SURFACE =         -26936.60
            SOIL ZONE =        6276733.98              SOIL ZONE =        -175967.45
     UNSATURATED ZONE =       -2552991.66       UNSATURATED ZONE =         -17472.89
       SATURATED ZONE =       -8447900.00         SATURATED ZONE =        -182560.81
                LAKES =       -8387455.37                  LAKES =        -318403.38

 OVERALL BUDGET ERROR =        1735836.98           BUDGET ERROR =          17369.82


  PERCENT DISCREPANCY =              1.78    PERCENT DISCREPANCY =              2.44



1
 SUMMARY VOLUMETRIC BUDGET FOR GSFLOW 
 DATE: 12 02 1980              CUMULATIVE TIME STEP:      63
 MODFLOW STRESS PERIOD      1     CURRENT TIME STEP:      63     ITERATIONS:       3

 -----------------------------------------------------------------------------------

   CUMULATIVE VOLUMES               L**3   RATES FOR THIS TIME STEP           L**3/T
   ------------------                      ------------------------

                                     IN                                         IN
                                     --                                         --
        PRECIPITATION =        1.0846D+08          PRECIPITATION =        3198161.89
           STREAMFLOW =                               STREAMFLOW =                  
     GW BOUNDARY FLOW =                         GW BOUNDARY FLOW =                  


                                    OUT                                        OUT
                                    ---                                        ---
   EVAPOTRANSPIRATION =        8.9790D+07     EVAPOTRANSPIRATION =        1264218.86
           STREAMFLOW =        1.7318D+07             STREAMFLOW =         437207.22
     GW BOUNDARY FLOW =                         GW BOUNDARY FLOW =                  

   INFLOWS - OUTFLOWS =        1355693.31     INFLOWS - OUTFLOWS =        1496735.81
             --------                                   --------

 TOTAL STORAGE CHANGE =        -816646.49         STORAGE CHANGE =        1301054.55
       --------------                             --------------
         LAND SURFACE =        7153033.00           LAND SURFACE =        -909613.44
            SOIL ZONE =        1.0124D+07              SOIL ZONE =        1707408.15
     UNSATURATED ZONE =       -2424504.29       UNSATURATED ZONE =          47755.25
       SATURATED ZONE =       -9200645.48         SATURATED ZONE =         -61317.84
                LAKES =       -6469009.13                  LAKES =         516822.44

 OVERALL BUDGET ERROR =        2172339.81           BUDGET ERROR =         195681.27

  ***WARNING, FLUX RATES OFF > 3%

  PERCENT DISCREPANCY =              2.01    PERCENT DISCREPANCY =              6.31



1
 SUMMARY VOLUMETRIC BUDGET FOR GSFLOW 
 DATE: 12 09 1980              CUMULATIVE TIME STEP:      70
 MODFLOW STRESS PERIOD      1     CURRENT TIME STEP:      70     ITERATIONS:       3

 -----------------------------------------------------------------------------------

   CUMULATIVE VOLUMES               L**3   RATES FOR THIS TIME STEP           L**3/T
   ------------------                      ------------------------

                                     IN                                         IN
                                     --                                         --
        PRECIPITATION =        1.7882D+08          PRECIPITATION =                  
           STREAMFLOW =                               STREAMFLOW =                  
     GW BOUNDARY FLOW =                         GW BOUNDARY FLOW =                  


                                    OUT                                        OUT
                                    ---                                        ---
   EVAPOTRANSPIRATION =        9.2061D+07     EVAPOTRANSPIRATION =         374851.33
           STREAMFLOW =        2.0282D+07             STREAMFLOW =         420980.47
     GW BOUNDARY FLOW =                         GW BOUNDARY FLOW =                  

   INFLOWS - OUTFLOWS =        6.6480D+07     INFLOWS - OUTFLOWS =        -795831.80
             --------                                   --------

 TOTAL STORAGE CHANGE =        6.3918D+07         STORAGE CHANGE =        -811156.60
       --------------                             --------------
         LAND SURFACE =        5.1471D+07           LAND SURFACE =        -232729.71
            SOIL ZONE =        1.3096D+07              SOIL ZONE =        -136166.96
     UNSATURATED ZONE =       -2026390.68       UNSATURATED ZONE =          32860.50
       SATURATED ZONE =       -1.0172D+07         SATURATED ZONE =        -207388.94
                LAKES =        1.1550D+07                  LAKES =        -267731.50

 OVERALL BUDGET ERROR =        2561776.55           BUDGET ERROR =          15324.81


  PERCENT DISCREPANCY =              1.44    PERCENT DISCREPANCY =              1.91



1
 SUMMARY VOLUMETRIC BUDGET FOR GSFLOW 
 DATE: 12 16 1980              CUMULATIVE TIME STEP:      77
 MODFLOW STRESS PERIOD      1     CURRENT TIME STEP:      77     ITERATIONS:       4

 -----------------------------------------------------------------------------------

   CUMULATIVE VOLUMES               L**3   RATES FOR THIS TIME STEP           L**3/T
   ------------------                      ------------------------

                                     IN                                         IN
                                     --                                         --
        PRECIPITATION =        1.7882D+08          PRECIPITATION =                  
           STREAMFLOW =                               STREAMFLOW =                  
     GW BOUNDARY FLOW =                         GW BOUNDARY FLOW =                  


                                    OUT                                        OUT
                                    ---                                        ---
   EVAPOTRANSPIRATION =        9.8500D+07     EVAPOTRANSPIRATION =        1458803.28
           STREAMFLOW =        2.3263D+07             STREAMFLOW =         430698.81
     GW BOUNDARY FLOW =                         GW BOUNDARY FLOW =                  

   INFLOWS - OUTFLOWS =        5.7061D+07     INFLOWS - OUTFLOWS =       -1889502.10
             --------                                   --------

 TOTAL STORAGE CHANGE =        5.4319D+07         STORAGE CHANGE =       -1919255.13
       --------------                             --------------
         LAND SURFACE =        4.7223D+07           LAND SURFACE =       -1206516.25
            SOIL ZONE =        1.2734D+07              SOIL ZONE =         209349.86
     UNSATURATED ZONE =       -1979372.01       UNSATURATED ZONE =          -7480.11
       SATURATED ZONE =       -1.1518D+07         SATURATED ZONE =        -166053.06
                LAKES =        7858542.30                  LAKES =        -748555.56

 OVERALL BUDGET ERROR =        2742355.43           BUDGET ERROR =          29753.04


  PERCENT DISCREPANCY =              1.55    PERCENT DISCREPANCY =              1.56



1
 SUMMARY VOLUMETRIC BUDGET FOR GSFLOW 
 DATE: 12 23 1980              CUMULATIVE TIME STEP:      84
 MODFLOW STRESS PERIOD      1     CURRENT TIME STEP:      84     ITERATIONS:       3

 -----------------------------------------------------------------------------------

   CUMULATIVE VOLUMES               L**3   RATES FOR THIS TIME STEP           L**3/T
   ------------------                      ------------------------

                                     IN                                         IN
                                     --                                         --
        PRECIPITATION =        1.8522D+08          PRECIPITATION =        3198161.89
           STREAMFLOW =                               STREAMFLOW =                  
     GW BOUNDARY FLOW =                         GW BOUNDARY FLOW =                  


                                    OUT                                        OUT
                                    ---                                        ---
   EVAPOTRANSPIRATION =        1.0684D+08     EVAPOTRANSPIRATION =        1085221.66
           STREAMFLOW =        2.6316D+07             STREAMFLOW =         443565.97
     GW BOUNDARY FLOW =                         GW BOUNDARY FLOW =                  

   INFLOWS - OUTFLOWS =        5.2068D+07     INFLOWS - OUTFLOWS =        1669374.27
             --------                                   --------

 TOTAL STORAGE CHANGE =        4.8911D+07         STORAGE CHANGE =        1532032.00
       --------------                             --------------
         LAND SURFACE =        4.2129D+07           LAND SURFACE =        -245970.29
            SOIL ZONE =        1.5587D+07              SOIL ZONE =        1323284.02
     UNSATURATED ZONE =       -1842519.16       UNSATURATED ZONE =          68194.64
       SATURATED ZONE =       -1.2507D+07         SATURATED ZONE =         -80475.82
                LAKES =        5544793.61                  LAKES =         466999.44

 OVERALL BUDGET ERROR =        3156168.44           BUDGET ERROR =         137342.27

  ***WARNING, FLUX RATES OFF > 3%

  PERCENT DISCREPANCY =              1.72    PERCENT DISCREPANCY =              4.39



1
 SUMMARY VOLUMETRIC BUDGET FOR GSFLOW 
 DATE: 12 30 1980              CUMULATIVE TIME STEP:      91
 MODFLOW STRESS PERIOD      1     CURRENT TIME STEP:      91     ITERATIONS:       4

 -----------------------------------------------------------------------------------

   CUMULATIVE VOLUMES               L**3   RATES FOR THIS TIME STEP           L**3/T
   ------------------                      ------------------------

                                     IN                                         IN
                                     --                                         --
        PRECIPITATION =        1.8522D+08          PRECIPITATION =                  
           STREAMFLOW =                               STREAMFLOW =                  
     GW BOUNDARY FLOW =                         GW BOUNDARY FLOW =                  


                                    OUT                                        OUT
                                    ---                                        ---
   EVAPOTRANSPIRATION =        1.1708D+08     EVAPOTRANSPIRATION =        1242375.35
           STREAMFLOW =        2.9399D+07             STREAMFLOW =         445279.69
     GW BOUNDARY FLOW =                         GW BOUNDARY FLOW =                  

   INFLOWS - OUTFLOWS =        3.8741D+07     INFLOWS - OUTFLOWS =       -1687655.04
             --------                                   --------

 TOTAL STORAGE CHANGE =        3.5340D+07         STORAGE CHANGE =       -1708169.62
       --------------                             --------------
         LAND SURFACE =        3.5990D+07           LAND SURFACE =        -559081.80
            SOIL ZONE =        1.3771D+07              SOIL ZONE =        -383635.90
     UNSATURATED ZONE =       -1726957.59       UNSATURATED ZONE =           9568.84
       SATURATED ZONE =       -1.3560D+07         SATURATED ZONE =        -161599.62
                LAKES =         866324.49                  LAKES =        -613421.12

 OVERALL BUDGET ERROR =        3401599.59           BUDGET ERROR =          20514.58


  PERCENT DISCREPANCY =              1.85    PERCENT DISCREPANCY =              1.21



1
 SUMMARY VOLUMETRIC BUDGET FOR GSFLOW 
 DATE: 01 06 1981              CUMULATIVE TIME STEP:      98
 MODFLOW STRESS PERIOD      1     CURRENT TIME STEP:      98     ITERATIONS:       7

 -----------------------------------------------------------------------------------

   CUMULATIVE VOLUMES               L**3   RATES FOR THIS TIME STEP           L**3/T
   ------------------                      ------------------------

                                     IN                                         IN
                                     --                                         --
        PRECIPITATION =        2.0923D+08          PRECIPITATION =                  
           STREAMFLOW =                               STREAMFLOW =                  
     GW BOUNDARY FLOW =                         GW BOUNDARY FLOW =                  


                                    OUT                                        OUT
                                    ---                                        ---
   EVAPOTRANSPIRATION =        1.2461D+08     EVAPOTRANSPIRATION =        1136930.09
           STREAMFLOW =        3.2519D+07             STREAMFLOW =         445540.75
     GW BOUNDARY FLOW =                         GW BOUNDARY FLOW =                  

   INFLOWS - OUTFLOWS =        5.2099D+07     INFLOWS - OUTFLOWS =       -1582470.84
             --------                                   --------

 TOTAL STORAGE CHANGE =        4.8144D+07         STORAGE CHANGE =       -1603528.80
       --------------                             --------------
         LAND SURFACE =        4.1576D+07           LAND SURFACE =        -362260.72
            SOIL ZONE =        1.6966D+07              SOIL ZONE =        -553022.71
     UNSATURATED ZONE =       -1336029.07       UNSATURATED ZONE =          60864.69
       SATURATED ZONE =       -1.4237D+07         SATURATED ZONE =        -190309.56
                LAKES =        5174592.89                  LAKES =        -558800.50

 OVERALL BUDGET ERROR =        3954969.83           BUDGET ERROR =          21057.96


  PERCENT DISCREPANCY =              1.91    PERCENT DISCREPANCY =              1.32



1
 SUMMARY VOLUMETRIC BUDGET FOR GSFLOW 
 DATE: 01 13 1981              CUMULATIVE TIME STEP:     105
 MODFLOW STRESS PERIOD      1     CURRENT TIME STEP:     105     ITERATIONS:       4

 -----------------------------------------------------------------------------------

   CUMULATIVE VOLUMES               L**3   RATES FOR THIS TIME STEP           L**3/T
   ------------------                      ------------------------

                                     IN                                         IN
                                     --                                         --
        PRECIPITATION =        2.1223D+08          PRECIPITATION =                  
           STREAMFLOW =                               STREAMFLOW =                  
     GW BOUNDARY FLOW =                         GW BOUNDARY FLOW =                  


                                    OUT                                        OUT
                                    ---                                        ---
   EVAPOTRANSPIRATION =        1.3296D+08     EVAPOTRANSPIRATION =        1414790.94
           STREAMFLOW =        3.5650D+07             STREAMFLOW =         457520.28
     GW BOUNDARY FLOW =                         GW BOUNDARY FLOW =                  

   INFLOWS - OUTFLOWS =        4.3616D+07     INFLOWS - OUTFLOWS =       -1872311.22
             --------                                   --------

 TOTAL STORAGE CHANGE =        3.9487D+07         STORAGE CHANGE =       -1890707.87
       --------------                             --------------
         LAND SURFACE =        4.0089D+07           LAND SURFACE =        -485861.70
            SOIL ZONE =        1.4474D+07              SOIL ZONE =        -490325.68
     UNSATURATED ZONE =       -1244284.21       UNSATURATED ZONE =          -8593.75
       SATURATED ZONE =       -1.5461D+07         SATURATED ZONE =        -174094.88
                LAKES =        1628646.80                  LAKES =        -731831.88

 OVERALL BUDGET ERROR =        4129437.92           BUDGET ERROR =          18396.65


  PERCENT DISCREPANCY =              1.96    PERCENT DISCREPANCY =              0.98



1
 SUMMARY VOLUMETRIC BUDGET FOR GSFLOW 
 DATE: 01 20 1981              CUMULATIVE TIME STEP:     112
 MODFLOW STRESS PERIOD      1     CURRENT TIME STEP:     112     ITERATIONS:      14

 -----------------------------------------------------------------------------------

   CUMULATIVE VOLUMES               L**3   RATES FOR THIS TIME STEP           L**3/T
   ------------------                      ------------------------

                                     IN                                         IN
                                     --                                         --
        PRECIPITATION =        2.2423D+08          PRECIPITATION =        6001392.59
           STREAMFLOW =                               STREAMFLOW =                  
     GW BOUNDARY FLOW =                         GW BOUNDARY FLOW =                  


                                    OUT                                        OUT
                                    ---                                        ---
   EVAPOTRANSPIRATION =        1.4404D+08     EVAPOTRANSPIRATION =        1821199.01
           STREAMFLOW =        3.9241D+07             STREAMFLOW =         485521.66
     GW BOUNDARY FLOW =                         GW BOUNDARY FLOW =                  

   INFLOWS - OUTFLOWS =        4.0946D+07     INFLOWS - OUTFLOWS =        3694671.92
             --------                                   --------

 TOTAL STORAGE CHANGE =        3.6517D+07         STORAGE CHANGE =        3611178.32
       --------------                             --------------
         LAND SURFACE =        3.7521D+07           LAND SURFACE =         673026.73
            SOIL ZONE =        1.6087D+07              SOIL ZONE =        1352972.83
     UNSATURATED ZONE =       -1046888.46       UNSATURATED ZONE =          96898.07
       SATURATED ZONE =       -1.6163D+07         SATURATED ZONE =          87765.06
                LAKES =         118512.49                  LAKES =        1400515.62

 OVERALL BUDGET ERROR =        4428938.39           BUDGET ERROR =          83493.60


  PERCENT DISCREPANCY =              1.99    PERCENT DISCREPANCY =              1.40



1
 SUMMARY VOLUMETRIC BUDGET FOR GSFLOW 
 DATE: 01 27 1981              CUMULATIVE TIME STEP:     119
 MODFLOW STRESS PERIOD      1     CURRENT TIME STEP:     119     ITERATIONS:       3

 -----------------------------------------------------------------------------------

   CUMULATIVE VOLUMES               L**3   RATES FOR THIS TIME STEP           L**3/T
   ------------------                      ------------------------

                                     IN                                         IN
                                     --                                         --
        PRECIPITATION =        3.3525D+08          PRECIPITATION =        6.0014D+07
           STREAMFLOW =                               STREAMFLOW =                  
     GW BOUNDARY FLOW =                         GW BOUNDARY FLOW =                  


                                    OUT                                        OUT
                                    ---                                        ---
   EVAPOTRANSPIRATION =        1.5315D+08     EVAPOTRANSPIRATION =         666324.55
           STREAMFLOW =        4.1752D+07             STREAMFLOW =         345812.06
     GW BOUNDARY FLOW =                         GW BOUNDARY FLOW =                  

   INFLOWS - OUTFLOWS =        1.4035D+08     INFLOWS - OUTFLOWS =        5.9002D+07
             --------                                   --------

 TOTAL STORAGE CHANGE =        1.3478D+08         STORAGE CHANGE =        5.8425D+07
       --------------                             --------------
         LAND SURFACE =        1.0747D+08           LAND SURFACE =        4.1072D+07
            SOIL ZONE =        1.7922D+07              SOIL ZONE =        1619622.80
     UNSATURATED ZONE =        -552114.33       UNSATURATED ZONE =          99650.26
       SATURATED ZONE =       -1.6898D+07         SATURATED ZONE =         -38266.70
                LAKES =        2.6844D+07                  LAKES =        1.5672D+07

 OVERALL BUDGET ERROR =        5567903.33           BUDGET ERROR =         576737.59


  PERCENT DISCREPANCY =              1.67    PERCENT DISCREPANCY =              0.97



1
 SUMMARY VOLUMETRIC BUDGET FOR GSFLOW 
 DATE: 02 03 1981              CUMULATIVE TIME STEP:     126
 MODFLOW STRESS PERIOD      1     CURRENT TIME STEP:     126     ITERATIONS:       9

 -----------------------------------------------------------------------------------

   CUMULATIVE VOLUMES               L**3   RATES FOR THIS TIME STEP           L**3/T
   ------------------                      ------------------------

                                     IN                                         IN
                                     --                                         --
        PRECIPITATION =        4.0137D+08          PRECIPITATION =                  
           STREAMFLOW =                               STREAMFLOW =                  
     GW BOUNDARY FLOW =                         GW BOUNDARY FLOW =                  


                                    OUT                                        OUT
                                    ---                                        ---
   EVAPOTRANSPIRATION =        1.5681D+08     EVAPOTRANSPIRATION =         905561.41
           STREAMFLOW =        4.4232D+07             STREAMFLOW =         354891.69
     GW BOUNDARY FLOW =                         GW BOUNDARY FLOW =                  

   INFLOWS - OUTFLOWS =        2.0033D+08     INFLOWS - OUTFLOWS =       -1260453.10
             --------                                   --------

 TOTAL STORAGE CHANGE =        1.9440D+08         STORAGE CHANGE =       -1280426.07
       --------------                             --------------
         LAND SURFACE =        1.5382D+08           LAND SURFACE =        -497697.44
            SOIL ZONE =        1.6950D+07              SOIL ZONE =        -134059.73
     UNSATURATED ZONE =        -253435.17       UNSATURATED ZONE =           8742.70
       SATURATED ZONE =       -1.8085D+07         SATURATED ZONE =        -175300.88
                LAKES =        4.1974D+07                  LAKES =        -482110.72

 OVERALL BUDGET ERROR =        5921151.52           BUDGET ERROR =          19972.97


  PERCENT DISCREPANCY =              1.49    PERCENT DISCREPANCY =              1.57



1
 SUMMARY VOLUMETRIC BUDGET FOR GSFLOW 
 DATE: 02 10 1981              CUMULATIVE TIME STEP:     133
 MODFLOW STRESS PERIOD      1     CURRENT TIME STEP:     133     ITERATIONS:       8

 -----------------------------------------------------------------------------------

   CUMULATIVE VOLUMES               L**3   RATES FOR THIS TIME STEP           L**3/T
   ------------------                      ------------------------

                                     IN                                         IN
                                     --                                         --
        PRECIPITATION =        4.1375D+08          PRECIPITATION =        3095932.43
           STREAMFLOW =                               STREAMFLOW =                  
     GW BOUNDARY FLOW =                         GW BOUNDARY FLOW =                  


                                    OUT                                        OUT
                                    ---                                        ---
   EVAPOTRANSPIRATION =        1.6226D+08     EVAPOTRANSPIRATION =         586364.91
           STREAMFLOW =        4.6626D+07             STREAMFLOW =         340304.81
     GW BOUNDARY FLOW =                         GW BOUNDARY FLOW =                  

   INFLOWS - OUTFLOWS =        2.0486D+08     INFLOWS - OUTFLOWS =        2169262.71
             --------                                   --------

 TOTAL STORAGE CHANGE =        1.9875D+08         STORAGE CHANGE =        2138418.49
       --------------                             --------------
         LAND SURFACE =        1.5941D+08           LAND SURFACE =        1678271.43
            SOIL ZONE =        1.6845D+07              SOIL ZONE =         185450.42
     UNSATURATED ZONE =        -330516.85       UNSATURATED ZONE =         -14037.23
       SATURATED ZONE =       -1.9213D+07         SATURATED ZONE =        -147253.53
                LAKES =        4.2040D+07                  LAKES =         435987.41

 OVERALL BUDGET ERROR =        6110710.19           BUDGET ERROR =          30844.22


  PERCENT DISCREPANCY =              1.49    PERCENT DISCREPANCY =              1.00



1
 SUMMARY VOLUMETRIC BUDGET FOR GSFLOW 
 DATE: 02 17 1981              CUMULATIVE TIME STEP:     140
 MODFLOW STRESS PERIOD      1     CURRENT TIME STEP:     140     ITERATIONS:      10

 -----------------------------------------------------------------------------------

   CUMULATIVE VOLUMES               L**3   RATES FOR THIS TIME STEP           L**3/T
   ------------------                      ------------------------

                                     IN                                         IN
                                     --                                         --
        PRECIPITATION =        4.6328D+08          PRECIPITATION =                  
           STREAMFLOW =                               STREAMFLOW =                  
     GW BOUNDARY FLOW =                         GW BOUNDARY FLOW =                  


                                    OUT                                        OUT
                                    ---                                        ---
   EVAPOTRANSPIRATION =        1.7368D+08     EVAPOTRANSPIRATION =        2672309.06
           STREAMFLOW =        4.8976D+07             STREAMFLOW =         285389.16
     GW BOUNDARY FLOW =                         GW BOUNDARY FLOW =                  

   INFLOWS - OUTFLOWS =        2.4063D+08     INFLOWS - OUTFLOWS =       -2957698.22
             --------                                   --------

 TOTAL STORAGE CHANGE =        2.3380D+08         STORAGE CHANGE =       -2970996.37
       --------------                             --------------
         LAND SURFACE =        1.7506D+08           LAND SURFACE =       -2254149.28
            SOIL ZONE =        2.3384D+07              SOIL ZONE =         -33282.30
     UNSATURATED ZONE =         246906.37       UNSATURATED ZONE =          85156.15
       SATURATED ZONE =       -1.9471D+07         SATURATED ZONE =        -129390.45
                LAKES =        5.4588D+07                  LAKES =        -639330.50

 OVERALL BUDGET ERROR =        6828354.45           BUDGET ERROR =          13298.15


  PERCENT DISCREPANCY =              1.48    PERCENT DISCREPANCY =              0.45



1
 SUMMARY VOLUMETRIC BUDGET FOR GSFLOW 
 DATE: 02 24 1981              CUMULATIVE TIME STEP:     147
 MODFLOW STRESS PERIOD      1     CURRENT TIME STEP:     147     ITERATIONS:       4

 -----------------------------------------------------------------------------------

   CUMULATIVE VOLUMES               L**3   RATES FOR THIS TIME STEP           L**3/T
   ------------------                      ------------------------

                                     IN                                         IN
                                     --                                         --
        PRECIPITATION =        4.8805D+08          PRECIPITATION =        1.8576D+07
           STREAMFLOW =                               STREAMFLOW =                  
     GW BOUNDARY FLOW =                         GW BOUNDARY FLOW =                  


                                    OUT                                        OUT
                                    ---                                        ---
   EVAPOTRANSPIRATION =        1.8731D+08     EVAPOTRANSPIRATION =        1365273.88
           STREAMFLOW =        5.0059D+07             STREAMFLOW =         143123.81
     GW BOUNDARY FLOW =                         GW BOUNDARY FLOW =                  

   INFLOWS - OUTFLOWS =        2.5068D+08     INFLOWS - OUTFLOWS =        1.7067D+07
             --------                                   --------

 TOTAL STORAGE CHANGE =        2.4318D+08         STORAGE CHANGE =        1.6946D+07
       --------------                             --------------
         LAND SURFACE =        1.7597D+08           LAND SURFACE =        1.1072D+07
            SOIL ZONE =        2.5725D+07              SOIL ZONE =         477646.39
     UNSATURATED ZONE =       -1555596.32       UNSATURATED ZONE =         267320.92
       SATURATED ZONE =       -1.7965D+07         SATURATED ZONE =          18922.06
                LAKES =        6.1005D+07                  LAKES =        5109907.50

 OVERALL BUDGET ERROR =        7507599.34           BUDGET ERROR =         121313.99


  PERCENT DISCREPANCY =              1.55    PERCENT DISCREPANCY =              0.66



1
 SUMMARY VOLUMETRIC BUDGET FOR GSFLOW 
 DATE: 03 03 1981              CUMULATIVE TIME STEP:     154
 MODFLOW STRESS PERIOD      1     CURRENT TIME STEP:     154     ITERATIONS:      16

 -----------------------------------------------------------------------------------

   CUMULATIVE VOLUMES               L**3   RATES FOR THIS TIME STEP           L**3/T
   ------------------                      ------------------------

                                     IN                                         IN
                                     --                                         --
        PRECIPITATION =        5.0056D+08          PRECIPITATION =                  
           STREAMFLOW =                               STREAMFLOW =                  
     GW BOUNDARY FLOW =                         GW BOUNDARY FLOW =                  


                                    OUT                                        OUT
                                    ---                                        ---
   EVAPOTRANSPIRATION =        1.9600D+08     EVAPOTRANSPIRATION =        2217464.52
           STREAMFLOW =        5.1106D+07             STREAMFLOW =         161574.72
     GW BOUNDARY FLOW =                         GW BOUNDARY FLOW =                  

   INFLOWS - OUTFLOWS =        2.5345D+08     INFLOWS - OUTFLOWS =       -2379039.24
             --------                                   --------

 TOTAL STORAGE CHANGE =        2.4559D+08         STORAGE CHANGE =       -2414062.06
       --------------                             --------------
         LAND SURFACE =        1.7885D+08           LAND SURFACE =       -1096145.58
            SOIL ZONE =        2.3961D+07              SOIL ZONE =        -357534.66
     UNSATURATED ZONE =        -914138.29       UNSATURATED ZONE =         -17951.81
       SATURATED ZONE =       -1.9172D+07         SATURATED ZONE =        -179535.19
                LAKES =        6.2872D+07                  LAKES =        -762894.81

 OVERALL BUDGET ERROR =        7858210.75           BUDGET ERROR =          35022.82


  PERCENT DISCREPANCY =              1.58    PERCENT DISCREPANCY =              1.46



1
 SUMMARY VOLUMETRIC BUDGET FOR GSFLOW 
 DATE: 03 10 1981              CUMULATIVE TIME STEP:     161
 MODFLOW STRESS PERIOD      1     CURRENT TIME STEP:     161     ITERATIONS:      45

 -----------------------------------------------------------------------------------

   CUMULATIVE VOLUMES               L**3   RATES FOR THIS TIME STEP           L**3/T
   ------------------                      ------------------------

                                     IN                                         IN
                                     --                                         --
        PRECIPITATION =        5.0378D+08          PRECIPITATION =        3221591.34
           STREAMFLOW =                               STREAMFLOW =                  
     GW BOUNDARY FLOW =                         GW BOUNDARY FLOW =                  


                                    OUT                                        OUT
                                    ---                                        ---
   EVAPOTRANSPIRATION =        2.1352D+08     EVAPOTRANSPIRATION =        1944327.82
           STREAMFLOW =        5.2250D+07             STREAMFLOW =         163871.31
     GW BOUNDARY FLOW =                         GW BOUNDARY FLOW =                  

   INFLOWS - OUTFLOWS =        2.3801D+08     INFLOWS - OUTFLOWS =        1113392.20
             --------                                   --------

 TOTAL STORAGE CHANGE =        2.2986D+08         STORAGE CHANGE =        1058299.71
       --------------                             --------------
         LAND SURFACE =        1.6676D+08           LAND SURFACE =       -1607197.08
            SOIL ZONE =        2.4496D+07              SOIL ZONE =        1221505.02
     UNSATURATED ZONE =       -1100148.84       UNSATURATED ZONE =          74186.27
       SATURATED ZONE =       -1.9832D+07         SATURATED ZONE =          94530.75
                LAKES =        5.9541D+07                  LAKES =        1275274.75

 OVERALL BUDGET ERROR =        8152830.59           BUDGET ERROR =          55092.49


  PERCENT DISCREPANCY =              1.63    PERCENT DISCREPANCY =              1.72



1
 SUMMARY VOLUMETRIC BUDGET FOR GSFLOW 
 DATE: 03 17 1981              CUMULATIVE TIME STEP:     168
 MODFLOW STRESS PERIOD      1     CURRENT TIME STEP:     168     ITERATIONS:      33

 -----------------------------------------------------------------------------------

   CUMULATIVE VOLUMES               L**3   RATES FOR THIS TIME STEP           L**3/T
   ------------------                      ------------------------

                                     IN                                         IN
                                     --                                         --
        PRECIPITATION =        5.1345D+08          PRECIPITATION =        3221591.34
           STREAMFLOW =                               STREAMFLOW =                  
     GW BOUNDARY FLOW =                         GW BOUNDARY FLOW =                  


                                    OUT                                        OUT
                                    ---                                        ---
   EVAPOTRANSPIRATION =        2.2849D+08     EVAPOTRANSPIRATION =        1067155.97
           STREAMFLOW =        5.3446D+07             STREAMFLOW =         174561.22
     GW BOUNDARY FLOW =                         GW BOUNDARY FLOW =                  

   INFLOWS - OUTFLOWS =        2.3151D+08     INFLOWS - OUTFLOWS =        1979874.15
             --------                                   --------

 TOTAL STORAGE CHANGE =        2.2310D+08         STORAGE CHANGE =        1932919.70
       --------------                             --------------
         LAND SURFACE =        1.6298D+08           LAND SURFACE =        1567731.44
            SOIL ZONE =        2.3632D+07              SOIL ZONE =           5479.41
     UNSATURATED ZONE =       -1073545.06       UNSATURATED ZONE =        -136445.22
       SATURATED ZONE =       -2.0621D+07         SATURATED ZONE =         -11490.66
                LAKES =        5.8179D+07                  LAKES =         507644.72

 OVERALL BUDGET ERROR =        8414578.22           BUDGET ERROR =          46954.45


  PERCENT DISCREPANCY =              1.65    PERCENT DISCREPANCY =              1.47



1
 SUMMARY VOLUMETRIC BUDGET FOR GSFLOW 
 DATE: 03 24 1981              CUMULATIVE TIME STEP:     175
 MODFLOW STRESS PERIOD      1     CURRENT TIME STEP:     175     ITERATIONS:      22

 -----------------------------------------------------------------------------------

   CUMULATIVE VOLUMES               L**3   RATES FOR THIS TIME STEP           L**3/T
   ------------------                      ------------------------

                                     IN                                         IN
                                     --                                         --
        PRECIPITATION =        5.7144D+08          PRECIPITATION =        6443182.67
           STREAMFLOW =                               STREAMFLOW =                  
     GW BOUNDARY FLOW =                         GW BOUNDARY FLOW =                  


                                    OUT                                        OUT
                                    ---                                        ---
   EVAPOTRANSPIRATION =        2.4278D+08     EVAPOTRANSPIRATION =        1737256.48
           STREAMFLOW =        5.4582D+07             STREAMFLOW =         164597.64
     GW BOUNDARY FLOW =                         GW BOUNDARY FLOW =                  

   INFLOWS - OUTFLOWS =        2.7407D+08     INFLOWS - OUTFLOWS =        4541328.55
             --------                                   --------

 TOTAL STORAGE CHANGE =        2.6523D+08         STORAGE CHANGE =        4464776.55
       --------------                             --------------
         LAND SURFACE =        1.9121D+08           LAND SURFACE =        1648492.07
            SOIL ZONE =        2.5751D+07              SOIL ZONE =         746758.36
     UNSATURATED ZONE =        -722377.57       UNSATURATED ZONE =         102662.02
       SATURATED ZONE =       -2.1203D+07         SATURATED ZONE =          41952.84
                LAKES =        7.0189D+07                  LAKES =        1924911.25

 OVERALL BUDGET ERROR =        8843695.31           BUDGET ERROR =          76552.01


  PERCENT DISCREPANCY =              1.56    PERCENT DISCREPANCY =              1.20



1
 SUMMARY VOLUMETRIC BUDGET FOR GSFLOW 
 DATE: 03 31 1981              CUMULATIVE TIME STEP:     182
 MODFLOW STRESS PERIOD      1     CURRENT TIME STEP:     182     ITERATIONS:       6

 -----------------------------------------------------------------------------------

   CUMULATIVE VOLUMES               L**3   RATES FOR THIS TIME STEP           L**3/T
   ------------------                      ------------------------

                                     IN                                         IN
                                     --                                         --
        PRECIPITATION =        6.3587D+08          PRECIPITATION =        6443182.67
           STREAMFLOW =                               STREAMFLOW =                  
     GW BOUNDARY FLOW =                         GW BOUNDARY FLOW =                  


                                    OUT                                        OUT
                                    ---                                        ---
   EVAPOTRANSPIRATION =        2.5763D+08     EVAPOTRANSPIRATION =        1159522.91
           STREAMFLOW =        5.5754D+07             STREAMFLOW =         154066.19
     GW BOUNDARY FLOW =                         GW BOUNDARY FLOW =                  

   INFLOWS - OUTFLOWS =        3.2249D+08     INFLOWS - OUTFLOWS =        5129593.57
             --------                                   --------

 TOTAL STORAGE CHANGE =        3.1318D+08         STORAGE CHANGE =        5038914.35
       --------------                             --------------
         LAND SURFACE =        2.1723D+08           LAND SURFACE =        2850911.57
            SOIL ZONE =        2.7342D+07              SOIL ZONE =         452475.38
     UNSATURATED ZONE =       -4404287.51       UNSATURATED ZONE =         131928.44
       SATURATED ZONE =       -1.7981D+07         SATURATED ZONE =        -111923.30
                LAKES =        9.0997D+07                  LAKES =        1715522.25

 OVERALL BUDGET ERROR =        9304513.01           BUDGET ERROR =          90679.22


  PERCENT DISCREPANCY =              1.47    PERCENT DISCREPANCY =              1.42



1
 SUMMARY VOLUMETRIC BUDGET FOR GSFLOW 
 DATE: 04 07 1981              CUMULATIVE TIME STEP:     189
 MODFLOW STRESS PERIOD      1     CURRENT TIME STEP:     189     ITERATIONS:      36

 -----------------------------------------------------------------------------------

   CUMULATIVE VOLUMES               L**3   RATES FOR THIS TIME STEP           L**3/T
   ------------------                      ------------------------

                                     IN                                         IN
                                     --                                         --
        PRECIPITATION =        6.5328D+08          PRECIPITATION =                  
           STREAMFLOW =                               STREAMFLOW =                  
     GW BOUNDARY FLOW =                         GW BOUNDARY FLOW =                  


                                    OUT                                        OUT
                                    ---                                        ---
   EVAPOTRANSPIRATION =        2.8140D+08     EVAPOTRANSPIRATION =        4368658.45
           STREAMFLOW =        5.6883D+07             STREAMFLOW =         203100.39
     GW BOUNDARY FLOW =                         GW BOUNDARY FLOW =                  

   INFLOWS - OUTFLOWS =        3.1500D+08     INFLOWS - OUTFLOWS =       -4571758.84
             --------                                   --------

 TOTAL STORAGE CHANGE =        3.0535D+08         STORAGE CHANGE =       -4600687.53
       --------------                             --------------
         LAND SURFACE =        1.9636D+08           LAND SURFACE =       -6815335.05
            SOIL ZONE =        2.8302D+07              SOIL ZONE =          67349.21
     UNSATURATED ZONE =       -3237629.45       UNSATURATED ZONE =         240000.75
       SATURATED ZONE =       -1.6924D+07         SATURATED ZONE =         268839.31
                LAKES =        1.0086D+08                  LAKES =        1638458.25

 OVERALL BUDGET ERROR =        9648024.88           BUDGET ERROR =          28928.70


  PERCENT DISCREPANCY =              1.49    PERCENT DISCREPANCY =              0.63



1
 SUMMARY VOLUMETRIC BUDGET FOR GSFLOW 
 DATE: 04 14 1981              CUMULATIVE TIME STEP:     196
 MODFLOW STRESS PERIOD      1     CURRENT TIME STEP:     196     ITERATIONS:      30

 -----------------------------------------------------------------------------------

   CUMULATIVE VOLUMES               L**3   RATES FOR THIS TIME STEP           L**3/T
   ------------------                      ------------------------

                                     IN                                         IN
                                     --                                         --
        PRECIPITATION =        6.5328D+08          PRECIPITATION =                  
           STREAMFLOW =                               STREAMFLOW =                  
     GW BOUNDARY FLOW =                         GW BOUNDARY FLOW =                  


                                    OUT                                        OUT
                                    ---                                        ---
   EVAPOTRANSPIRATION =        3.1146D+08     EVAPOTRANSPIRATION =        5155116.79
           STREAMFLOW =        5.8129D+07             STREAMFLOW =         172000.27
     GW BOUNDARY FLOW =                         GW BOUNDARY FLOW =                  

   INFLOWS - OUTFLOWS =        2.8369D+08     INFLOWS - OUTFLOWS =       -5327117.06
             --------                                   --------

 TOTAL STORAGE CHANGE =        2.7381D+08         STORAGE CHANGE =       -5344868.66
       --------------                             --------------
         LAND SURFACE =        1.5009D+08           LAND SURFACE =       -7639635.78
            SOIL ZONE =        2.4341D+07              SOIL ZONE =        -855437.14
     UNSATURATED ZONE =       -1228043.21       UNSATURATED ZONE =         324424.17
       SATURATED ZONE =       -1.5291D+07         SATURATED ZONE =         277585.59
                LAKES =        1.1590D+08                  LAKES =        2548194.50

 OVERALL BUDGET ERROR =        9877370.82           BUDGET ERROR =          17751.60


  PERCENT DISCREPANCY =              1.52    PERCENT DISCREPANCY =              0.33



1
 SUMMARY VOLUMETRIC BUDGET FOR GSFLOW 
 DATE: 04 21 1981              CUMULATIVE TIME STEP:     203
 MODFLOW STRESS PERIOD      1     CURRENT TIME STEP:     203     ITERATIONS:      16

 -----------------------------------------------------------------------------------

   CUMULATIVE VOLUMES               L**3   RATES FOR THIS TIME STEP           L**3/T
   ------------------                      ------------------------

                                     IN                                         IN
                                     --                                         --
        PRECIPITATION =        6.7418D+08          PRECIPITATION =                  
           STREAMFLOW =                               STREAMFLOW =                  
     GW BOUNDARY FLOW =                         GW BOUNDARY FLOW =                  


                                    OUT                                        OUT
                                    ---                                        ---
   EVAPOTRANSPIRATION =        3.4145D+08     EVAPOTRANSPIRATION =        5647831.80
           STREAMFLOW =        5.9345D+07             STREAMFLOW =         169579.17
     GW BOUNDARY FLOW =                         GW BOUNDARY FLOW =                  

   INFLOWS - OUTFLOWS =        2.7338D+08     INFLOWS - OUTFLOWS =       -5817410.97
             --------                                   --------

 TOTAL STORAGE CHANGE =        2.6347D+08         STORAGE CHANGE =       -5804280.98
       --------------                             --------------
         LAND SURFACE =        1.2707D+08           LAND SURFACE =       -3302133.41
            SOIL ZONE =        2.2518D+07              SOIL ZONE =       -2021226.46
     UNSATURATED ZONE =         394284.58       UNSATURATED ZONE =         143118.08
       SATURATED ZONE =       -1.5334D+07         SATURATED ZONE =         -69860.00
                LAKES =        1.2882D+08                  LAKES =        -554179.19

 OVERALL BUDGET ERROR =        9916356.60           BUDGET ERROR =         -13129.98


  PERCENT DISCREPANCY =              1.48    PERCENT DISCREPANCY =             -0.23



1
 SUMMARY VOLUMETRIC BUDGET FOR GSFLOW 
 DATE: 04 28 1981              CUMULATIVE TIME STEP:     210
 MODFLOW STRESS PERIOD      1     CURRENT TIME STEP:     210     ITERATIONS:      37

 -----------------------------------------------------------------------------------

   CUMULATIVE VOLUMES               L**3   RATES FOR THIS TIME STEP           L**3/T
   ------------------                      ------------------------

                                     IN                                         IN
                                     --                                         --
        PRECIPITATION =        6.8114D+08          PRECIPITATION =                  
           STREAMFLOW =                               STREAMFLOW =                  
     GW BOUNDARY FLOW =                         GW BOUNDARY FLOW =                  


                                    OUT                                        OUT
                                    ---                                        ---
   EVAPOTRANSPIRATION =        3.8322D+08     EVAPOTRANSPIRATION =        5731889.23
           STREAMFLOW =        6.0557D+07             STREAMFLOW =         169029.37
     GW BOUNDARY FLOW =                         GW BOUNDARY FLOW =                  

   INFLOWS - OUTFLOWS =        2.3736D+08     INFLOWS - OUTFLOWS =       -5900918.61
             --------                                   --------

 TOTAL STORAGE CHANGE =        2.2745D+08         STORAGE CHANGE =       -5899419.39
       --------------                             --------------
         LAND SURFACE =        1.0063D+08           LAND SURFACE =       -4252967.19
            SOIL ZONE =        1.2686D+07              SOIL ZONE =       -1642333.58
     UNSATURATED ZONE =         511167.74       UNSATURATED ZONE =         -64647.74
       SATURATED ZONE =       -1.5372D+07         SATURATED ZONE =          94086.44
                LAKES =        1.2900D+08                  LAKES =         -33557.32

 OVERALL BUDGET ERROR =        9912750.82           BUDGET ERROR =          -1499.22


  PERCENT DISCREPANCY =              1.47    PERCENT DISCREPANCY =             -0.03



1
 SUMMARY VOLUMETRIC BUDGET FOR GSFLOW 
 DATE: 05 05 1981              CUMULATIVE TIME STEP:     217
 MODFLOW STRESS PERIOD      1     CURRENT TIME STEP:     217     ITERATIONS:      64

 -----------------------------------------------------------------------------------

   CUMULATIVE VOLUMES               L**3   RATES FOR THIS TIME STEP           L**3/T
   ------------------                      ------------------------

                                     IN                                         IN
                                     --                                         --
        PRECIPITATION =        6.8811D+08          PRECIPITATION =                  
           STREAMFLOW =                               STREAMFLOW =                  
     GW BOUNDARY FLOW =                         GW BOUNDARY FLOW =                  


                                    OUT                                        OUT
                                    ---                                        ---
   EVAPOTRANSPIRATION =        4.2190D+08     EVAPOTRANSPIRATION =        3871945.71
           STREAMFLOW =        6.1774D+07             STREAMFLOW =         173796.00
     GW BOUNDARY FLOW =                         GW BOUNDARY FLOW =                  

   INFLOWS - OUTFLOWS =        2.0444D+08     INFLOWS - OUTFLOWS =       -4045741.71
             --------                                   --------

 TOTAL STORAGE CHANGE =        1.9446D+08         STORAGE CHANGE =       -4055719.99
       --------------                             --------------
         LAND SURFACE =        7.3996D+07           LAND SURFACE =       -3142859.37
            SOIL ZONE =        6164989.86              SOIL ZONE =        -903864.69
     UNSATURATED ZONE =       -1034787.73       UNSATURATED ZONE =        -107833.45
       SATURATED ZONE =       -1.4571D+07         SATURATED ZONE =         -28561.59
                LAKES =        1.2990D+08                  LAKES =         127399.12

 OVERALL BUDGET ERROR =        9983115.59           BUDGET ERROR =           9978.28


  PERCENT DISCREPANCY =              1.46    PERCENT DISCREPANCY =              0.25



1
 SUMMARY VOLUMETRIC BUDGET FOR GSFLOW 
 DATE: 05 12 1981              CUMULATIVE TIME STEP:     224
 MODFLOW STRESS PERIOD      1     CURRENT TIME STEP:     224     ITERATIONS:      77

 -----------------------------------------------------------------------------------

   CUMULATIVE VOLUMES               L**3   RATES FOR THIS TIME STEP           L**3/T
   ------------------                      ------------------------

                                     IN                                         IN
                                     --                                         --
        PRECIPITATION =        6.8811D+08          PRECIPITATION =                  
           STREAMFLOW =                               STREAMFLOW =                  
     GW BOUNDARY FLOW =                         GW BOUNDARY FLOW =                  


                                    OUT                                        OUT
                                    ---                                        ---
   EVAPOTRANSPIRATION =        4.5127D+08     EVAPOTRANSPIRATION =        4664804.78
           STREAMFLOW =        6.2971D+07             STREAMFLOW =         168853.17
     GW BOUNDARY FLOW =                         GW BOUNDARY FLOW =                  

   INFLOWS - OUTFLOWS =        1.7387D+08     INFLOWS - OUTFLOWS =       -4833657.95
             --------                                   --------

 TOTAL STORAGE CHANGE =        1.6388D+08         STORAGE CHANGE =       -4841449.25
       --------------                             --------------
         LAND SURFACE =        4.9094D+07           LAND SURFACE =       -3677638.46
            SOIL ZONE =        -353803.02              SOIL ZONE =        -936786.63
     UNSATURATED ZONE =       -3748024.96       UNSATURATED ZONE =        -940444.91
       SATURATED ZONE =       -1.3262D+07         SATURATED ZONE =         520072.38
                LAKES =        1.3215D+08                  LAKES =         193348.38

 OVERALL BUDGET ERROR =        9989216.24           BUDGET ERROR =           7791.30


  PERCENT DISCREPANCY =              1.46    PERCENT DISCREPANCY =              0.16



1
 SUMMARY VOLUMETRIC BUDGET FOR GSFLOW 
 DATE: 05 19 1981              CUMULATIVE TIME STEP:     231
 MODFLOW STRESS PERIOD      1     CURRENT TIME STEP:     231     ITERATIONS:      41

 -----------------------------------------------------------------------------------

   CUMULATIVE VOLUMES               L**3   RATES FOR THIS TIME STEP           L**3/T
   ------------------                      ------------------------

                                     IN                                         IN
                                     --                                         --
        PRECIPITATION =        7.4671D+08          PRECIPITATION =        3447112.78
           STREAMFLOW =                               STREAMFLOW =                  
     GW BOUNDARY FLOW =                         GW BOUNDARY FLOW =                  


                                    OUT                                        OUT
                                    ---                                        ---
   EVAPOTRANSPIRATION =        4.6960D+08     EVAPOTRANSPIRATION =        1736034.87
           STREAMFLOW =        6.4161D+07             STREAMFLOW =         172527.06
     GW BOUNDARY FLOW =                         GW BOUNDARY FLOW =                  

   INFLOWS - OUTFLOWS =        2.1295D+08     INFLOWS - OUTFLOWS =        1538550.85
             --------                                   --------

 TOTAL STORAGE CHANGE =        2.0239D+08         STORAGE CHANGE =        1524248.57
       --------------                             --------------
         LAND SURFACE =        5.2560D+07           LAND SURFACE =       -3316295.73
            SOIL ZONE =        1.0613D+07              SOIL ZONE =        1983675.66
     UNSATURATED ZONE =       -3916455.84       UNSATURATED ZONE =          45275.18
       SATURATED ZONE =       -1.3005D+07         SATURATED ZONE =          55027.47
                LAKES =        1.5613D+08                  LAKES =        2756566.00

 OVERALL BUDGET ERROR =        1.0565D+07           BUDGET ERROR =          14302.27


  PERCENT DISCREPANCY =              1.42    PERCENT DISCREPANCY =              0.42



1
 SUMMARY VOLUMETRIC BUDGET FOR GSFLOW 
 DATE: 05 26 1981              CUMULATIVE TIME STEP:     238
 MODFLOW STRESS PERIOD      1     CURRENT TIME STEP:     238     ITERATIONS:      16

 -----------------------------------------------------------------------------------

   CUMULATIVE VOLUMES               L**3   RATES FOR THIS TIME STEP           L**3/T
   ------------------                      ------------------------

                                     IN                                         IN
                                     --                                         --
        PRECIPITATION =        7.7429D+08          PRECIPITATION =        1.7236D+07
           STREAMFLOW =                               STREAMFLOW =                  
     GW BOUNDARY FLOW =                         GW BOUNDARY FLOW =                  


                                    OUT                                        OUT
                                    ---                                        ---
   EVAPOTRANSPIRATION =        5.0080D+08     EVAPOTRANSPIRATION =        2623006.15
           STREAMFLOW =        6.5363D+07             STREAMFLOW =         180466.05
     GW BOUNDARY FLOW =                         GW BOUNDARY FLOW =                  

   INFLOWS - OUTFLOWS =        2.0813D+08     INFLOWS - OUTFLOWS =        1.4432D+07
             --------                                   --------

 TOTAL STORAGE CHANGE =        1.9731D+08         STORAGE CHANGE =        1.4253D+07
       --------------                             --------------
         LAND SURFACE =        3.5549D+07           LAND SURFACE =        -311649.66
            SOIL ZONE =        9184538.12              SOIL ZONE =        4566147.24
     UNSATURATED ZONE =       -3793420.56       UNSATURATED ZONE =          78633.69
       SATURATED ZONE =       -1.2464D+07         SATURATED ZONE =         548391.12
                LAKES =        1.6883D+08                  LAKES =        9371846.00

 OVERALL BUDGET ERROR =        1.0816D+07           BUDGET ERROR =         178723.07


  PERCENT DISCREPANCY =              1.41    PERCENT DISCREPANCY =              1.04



1
 SUMMARY VOLUMETRIC BUDGET FOR GSFLOW 
 DATE: 06 02 1981              CUMULATIVE TIME STEP:     245
 MODFLOW STRESS PERIOD      1     CURRENT TIME STEP:     245     ITERATIONS:      53

 -----------------------------------------------------------------------------------

   CUMULATIVE VOLUMES               L**3   RATES FOR THIS TIME STEP           L**3/T
   ------------------                      ------------------------

                                     IN                                         IN
                                     --                                         --
        PRECIPITATION =        7.7429D+08          PRECIPITATION =                  
           STREAMFLOW =                               STREAMFLOW =                  
     GW BOUNDARY FLOW =                         GW BOUNDARY FLOW =                  


                                    OUT                                        OUT
                                    ---                                        ---
   EVAPOTRANSPIRATION =        5.4187D+08     EVAPOTRANSPIRATION =        5902840.70
           STREAMFLOW =        6.6583D+07             STREAMFLOW =         178725.95
     GW BOUNDARY FLOW =                         GW BOUNDARY FLOW =                  

   INFLOWS - OUTFLOWS =        1.6584D+08     INFLOWS - OUTFLOWS =       -6081566.65
             --------                                   --------

 TOTAL STORAGE CHANGE =        1.5500D+08         STORAGE CHANGE =       -6089238.13
       --------------                             --------------
         LAND SURFACE =        2.1595D+07           LAND SURFACE =       -1680702.74
            SOIL ZONE =       -6625620.89              SOIL ZONE =       -1910110.34
     UNSATURATED ZONE =       -8582537.14       UNSATURATED ZONE =        -226251.70
       SATURATED ZONE =       -1.0837D+07         SATURATED ZONE =        -217869.47
                LAKES =        1.5945D+08                  LAKES =       -2054303.88

 OVERALL BUDGET ERROR =        1.0840D+07           BUDGET ERROR =           7671.48


  PERCENT DISCREPANCY =              1.41    PERCENT DISCREPANCY =              0.13



1
 SUMMARY VOLUMETRIC BUDGET FOR GSFLOW 
 DATE: 06 09 1981              CUMULATIVE TIME STEP:     252
 MODFLOW STRESS PERIOD      1     CURRENT TIME STEP:     252     ITERATIONS:      55

 -----------------------------------------------------------------------------------

   CUMULATIVE VOLUMES               L**3   RATES FOR THIS TIME STEP           L**3/T
   ------------------                      ------------------------

                                     IN                                         IN
                                     --                                         --
        PRECIPITATION =        7.7752D+08          PRECIPITATION =                  
           STREAMFLOW =                               STREAMFLOW =                  
     GW BOUNDARY FLOW =                         GW BOUNDARY FLOW =                  


                                    OUT                                        OUT
                                    ---                                        ---
   EVAPOTRANSPIRATION =        5.7960D+08     EVAPOTRANSPIRATION =        5596740.90
           STREAMFLOW =        6.7826D+07             STREAMFLOW =         203133.83
     GW BOUNDARY FLOW =                         GW BOUNDARY FLOW =                  

   INFLOWS - OUTFLOWS =        1.3010D+08     INFLOWS - OUTFLOWS =       -5799874.73
             --------                                   --------

 TOTAL STORAGE CHANGE =        1.1923D+08         STORAGE CHANGE =       -5797131.98
       --------------                             --------------
         LAND SURFACE =        1.1147D+07           LAND SURFACE =       -1086014.01
            SOIL ZONE =       -1.7376D+07              SOIL ZONE =       -1809111.66
     UNSATURATED ZONE =       -1.0153D+07       UNSATURATED ZONE =        -273865.74
       SATURATED ZONE =       -1.2022D+07         SATURATED ZONE =        -222886.83
                LAKES =        1.4763D+08                  LAKES =       -2405253.75

 OVERALL BUDGET ERROR =        1.0868D+07           BUDGET ERROR =          -2742.75


  PERCENT DISCREPANCY =              1.41    PERCENT DISCREPANCY =             -0.05



1
 SUMMARY VOLUMETRIC BUDGET FOR GSFLOW 
 DATE: 06 16 1981              CUMULATIVE TIME STEP:     259
 MODFLOW STRESS PERIOD      1     CURRENT TIME STEP:     259     ITERATIONS:      37

 -----------------------------------------------------------------------------------

   CUMULATIVE VOLUMES               L**3   RATES FOR THIS TIME STEP           L**3/T
   ------------------                      ------------------------

                                     IN                                         IN
                                     --                                         --
        PRECIPITATION =        7.7752D+08          PRECIPITATION =                  
           STREAMFLOW =                               STREAMFLOW =                  
     GW BOUNDARY FLOW =                         GW BOUNDARY FLOW =                  


                                    OUT                                        OUT
                                    ---                                        ---
   EVAPOTRANSPIRATION =        6.0859D+08     EVAPOTRANSPIRATION =        4924345.88
           STREAMFLOW =        7.0934D+07             STREAMFLOW =         702199.94
     GW BOUNDARY FLOW =                         GW BOUNDARY FLOW =                  

   INFLOWS - OUTFLOWS =        9.7997D+07     INFLOWS - OUTFLOWS =       -5626545.82
             --------                                   --------

 TOTAL STORAGE CHANGE =        8.7133D+07         STORAGE CHANGE =       -5625667.78
[...]
       SATURATED ZONE =       -6.7826D+07         SATURATED ZONE =        -198224.39
                LAKES =        7.0136D+08                  LAKES =       -4154142.25

 OVERALL BUDGET ERROR =        5.0829D+07           BUDGET ERROR =          17985.94


  PERCENT DISCREPANCY =              0.94    PERCENT DISCREPANCY =              0.40



1
 SUMMARY VOLUMETRIC BUDGET FOR GSFLOW 
 DATE: 11 29 1983              CUMULATIVE TIME STEP:    1155
 MODFLOW STRESS PERIOD      1     CURRENT TIME STEP:    1155     ITERATIONS:       2

 -----------------------------------------------------------------------------------

   CUMULATIVE VOLUMES               L**3   RATES FOR THIS TIME STEP           L**3/T
   ------------------                      ------------------------

                                     IN                                         IN
                                     --                                         --
        PRECIPITATION =        5.5463D+09          PRECIPITATION =        6461469.31
           STREAMFLOW =                               STREAMFLOW =                  
     GW BOUNDARY FLOW =                         GW BOUNDARY FLOW =                  


                                    OUT                                        OUT
                                    ---                                        ---
   EVAPOTRANSPIRATION =        2.9258D+09     EVAPOTRANSPIRATION =         359006.36
           STREAMFLOW =        1.6168D+09             STREAMFLOW =        4966705.50
     GW BOUNDARY FLOW =                         GW BOUNDARY FLOW =                  

   INFLOWS - OUTFLOWS =        1.0037D+09     INFLOWS - OUTFLOWS =        1135757.45
             --------                                   --------

 TOTAL STORAGE CHANGE =        9.5237D+08         STORAGE CHANGE =        1097860.72
       --------------                             --------------
         LAND SURFACE =        3.3601D+08           LAND SURFACE =        4614418.77
            SOIL ZONE =        4974013.72              SOIL ZONE =         -73191.07
     UNSATURATED ZONE =       -1.4313D+07       UNSATURATED ZONE =          32072.40
       SATURATED ZONE =       -6.9069D+07         SATURATED ZONE =        -174281.12
                LAKES =        6.9476D+08                  LAKES =       -3301158.25

 OVERALL BUDGET ERROR =        5.1297D+07           BUDGET ERROR =          37896.73


  PERCENT DISCREPANCY =              0.93    PERCENT DISCREPANCY =              0.59



1
 SUMMARY VOLUMETRIC BUDGET FOR GSFLOW 
 DATE: 12 06 1983              CUMULATIVE TIME STEP:    1162
 MODFLOW STRESS PERIOD      1     CURRENT TIME STEP:    1162     ITERATIONS:       2

 -----------------------------------------------------------------------------------

   CUMULATIVE VOLUMES               L**3   RATES FOR THIS TIME STEP           L**3/T
   ------------------                      ------------------------

                                     IN                                         IN
                                     --                                         --
        PRECIPITATION =        5.6038D+09          PRECIPITATION =        3198161.89
           STREAMFLOW =                               STREAMFLOW =                  
     GW BOUNDARY FLOW =                         GW BOUNDARY FLOW =                  


                                    OUT                                        OUT
                                    ---                                        ---
   EVAPOTRANSPIRATION =        2.9295D+09     EVAPOTRANSPIRATION =         188740.36
           STREAMFLOW =        1.6522D+09             STREAMFLOW =        5064639.00
     GW BOUNDARY FLOW =                         GW BOUNDARY FLOW =                  

   INFLOWS - OUTFLOWS =        1.0221D+09     INFLOWS - OUTFLOWS =       -2055217.47
             --------                                   --------

 TOTAL STORAGE CHANGE =        9.7057D+08         STORAGE CHANGE =       -2096650.40
       --------------                             --------------
         LAND SURFACE =        3.7453D+08           LAND SURFACE =        2297029.22
            SOIL ZONE =        5522022.76              SOIL ZONE =        -128084.72
     UNSATURATED ZONE =       -1.4037D+07       UNSATURATED ZONE =          34580.89
       SATURATED ZONE =       -7.0113D+07         SATURATED ZONE =        -169577.28
                LAKES =        6.7467D+08                  LAKES =       -4130598.50

 OVERALL BUDGET ERROR =        5.1511D+07           BUDGET ERROR =          41432.93


  PERCENT DISCREPANCY =              0.92    PERCENT DISCREPANCY =              0.79



1
 SUMMARY VOLUMETRIC BUDGET FOR GSFLOW 
 DATE: 12 13 1983              CUMULATIVE TIME STEP:    1169
 MODFLOW STRESS PERIOD      1     CURRENT TIME STEP:    1169     ITERATIONS:      13

 -----------------------------------------------------------------------------------

   CUMULATIVE VOLUMES               L**3   RATES FOR THIS TIME STEP           L**3/T
   ------------------                      ------------------------

                                     IN                                         IN
                                     --                                         --
        PRECIPITATION =        5.6998D+09          PRECIPITATION =        9594484.95
           STREAMFLOW =                               STREAMFLOW =                  
     GW BOUNDARY FLOW =                         GW BOUNDARY FLOW =                  


                                    OUT                                        OUT
                                    ---                                        ---
   EVAPOTRANSPIRATION =        2.9333D+09     EVAPOTRANSPIRATION =         228763.05
           STREAMFLOW =        1.6892D+09             STREAMFLOW =        5260512.00
     GW BOUNDARY FLOW =                         GW BOUNDARY FLOW =                  

   INFLOWS - OUTFLOWS =        1.0773D+09     INFLOWS - OUTFLOWS =        4105209.90
             --------                                   --------

 TOTAL STORAGE CHANGE =        1.0252D+09         STORAGE CHANGE =        4044474.39
       --------------                             --------------
         LAND SURFACE =        4.3881D+08           LAND SURFACE =        7023337.24
            SOIL ZONE =        6761206.02              SOIL ZONE =        -177643.88
     UNSATURATED ZONE =       -1.3550D+07       UNSATURATED ZONE =          43216.97
       SATURATED ZONE =       -7.0913D+07         SATURATED ZONE =        -189961.94
                LAKES =        6.6405D+08                  LAKES =       -2654474.00

 OVERALL BUDGET ERROR =        5.2132D+07           BUDGET ERROR =          60735.50


  PERCENT DISCREPANCY =              0.92    PERCENT DISCREPANCY =              0.64



1
 SUMMARY VOLUMETRIC BUDGET FOR GSFLOW 
 DATE: 12 20 1983              CUMULATIVE TIME STEP:    1176
 MODFLOW STRESS PERIOD      1     CURRENT TIME STEP:    1176     ITERATIONS:       3

 -----------------------------------------------------------------------------------

   CUMULATIVE VOLUMES               L**3   RATES FOR THIS TIME STEP           L**3/T
   ------------------                      ------------------------

                                     IN                                         IN
                                     --                                         --
        PRECIPITATION =        5.7158D+09          PRECIPITATION =                  
           STREAMFLOW =                               STREAMFLOW =                  
     GW BOUNDARY FLOW =                         GW BOUNDARY FLOW =                  


                                    OUT                                        OUT
                                    ---                                        ---
   EVAPOTRANSPIRATION =        2.9412D+09     EVAPOTRANSPIRATION =         341520.56
           STREAMFLOW =        1.7277D+09             STREAMFLOW =        5578472.50
     GW BOUNDARY FLOW =                         GW BOUNDARY FLOW =                  

   INFLOWS - OUTFLOWS =        1.0469D+09     INFLOWS - OUTFLOWS =       -5919993.06
             --------                                   --------

 TOTAL STORAGE CHANGE =        9.9439D+08         STORAGE CHANGE =       -5952078.43
       --------------                             --------------
         LAND SURFACE =        4.4222D+08           LAND SURFACE =        -213865.81
            SOIL ZONE =        7490162.97              SOIL ZONE =        -175627.52
     UNSATURATED ZONE =       -1.3175D+07       UNSATURATED ZONE =          48450.93
       SATURATED ZONE =       -7.1932D+07         SATURATED ZONE =        -178573.03
                LAKES =        6.2979D+08                  LAKES =       -5432463.00

 OVERALL BUDGET ERROR =        5.2478D+07           BUDGET ERROR =          32085.37


  PERCENT DISCREPANCY =              0.92    PERCENT DISCREPANCY =              0.54



1
 SUMMARY VOLUMETRIC BUDGET FOR GSFLOW 
 DATE: 12 27 1983              CUMULATIVE TIME STEP:    1183
 MODFLOW STRESS PERIOD      1     CURRENT TIME STEP:    1183     ITERATIONS:      28

 -----------------------------------------------------------------------------------

   CUMULATIVE VOLUMES               L**3   RATES FOR THIS TIME STEP           L**3/T
   ------------------                      ------------------------

                                     IN                                         IN
                                     --                                         --
        PRECIPITATION =        5.8917D+09          PRECIPITATION =        9594484.95
           STREAMFLOW =                               STREAMFLOW =                  
     GW BOUNDARY FLOW =                         GW BOUNDARY FLOW =                  


                                    OUT                                        OUT
                                    ---                                        ---
   EVAPOTRANSPIRATION =        2.9435D+09     EVAPOTRANSPIRATION =         404543.59
           STREAMFLOW =        1.7667D+09             STREAMFLOW =        5677393.00
     GW BOUNDARY FLOW =                         GW BOUNDARY FLOW =                  

   INFLOWS - OUTFLOWS =        1.1815D+09     INFLOWS - OUTFLOWS =        3512548.35
             --------                                   --------

 TOTAL STORAGE CHANGE =        1.1281D+09         STORAGE CHANGE =        3424855.48
       --------------                             --------------
         LAND SURFACE =        5.6722D+08           LAND SURFACE =        5883791.64
            SOIL ZONE =        8214770.95              SOIL ZONE =         229043.65
     UNSATURATED ZONE =       -1.2901D+07       UNSATURATED ZONE =         107232.81
       SATURATED ZONE =       -7.2549D+07         SATURATED ZONE =         -98461.37
                LAKES =        6.3807D+08                  LAKES =       -2696751.25

 OVERALL BUDGET ERROR =        5.3425D+07           BUDGET ERROR =          87692.88


  PERCENT DISCREPANCY =              0.91    PERCENT DISCREPANCY =              0.92



1
 SUMMARY VOLUMETRIC BUDGET FOR GSFLOW 
 DATE: 01 03 1984              CUMULATIVE TIME STEP:    1190
 MODFLOW STRESS PERIOD      1     CURRENT TIME STEP:    1190     ITERATIONS:       4

 -----------------------------------------------------------------------------------

   CUMULATIVE VOLUMES               L**3   RATES FOR THIS TIME STEP           L**3/T
   ------------------                      ------------------------

                                     IN                                         IN
                                     --                                         --
        PRECIPITATION =        5.9235D+09          PRECIPITATION =                  
           STREAMFLOW =                               STREAMFLOW =                  
     GW BOUNDARY FLOW =                         GW BOUNDARY FLOW =                  


                                    OUT                                        OUT
                                    ---                                        ---
   EVAPOTRANSPIRATION =        2.9499D+09     EVAPOTRANSPIRATION =        1481955.08
           STREAMFLOW =        1.8063D+09             STREAMFLOW =        5603065.50
     GW BOUNDARY FLOW =                         GW BOUNDARY FLOW =                  

   INFLOWS - OUTFLOWS =        1.1672D+09     INFLOWS - OUTFLOWS =       -7085020.58
             --------                                   --------

 TOTAL STORAGE CHANGE =        1.1134D+09         STORAGE CHANGE =       -7107100.79
       --------------                             --------------
         LAND SURFACE =        5.8049D+08           LAND SURFACE =        -951131.11
            SOIL ZONE =        8923567.67              SOIL ZONE =        -188597.59
     UNSATURATED ZONE =       -1.2432D+07       UNSATURATED ZONE =          10710.17
       SATURATED ZONE =       -7.3424D+07         SATURATED ZONE =        -194019.25
                LAKES =        6.0979D+08                  LAKES =       -5784063.00

 OVERALL BUDGET ERROR =        5.3834D+07           BUDGET ERROR =          22080.21


  PERCENT DISCREPANCY =              0.91    PERCENT DISCREPANCY =              0.31



1
 SUMMARY VOLUMETRIC BUDGET FOR GSFLOW 
 DATE: 01 10 1984              CUMULATIVE TIME STEP:    1197
 MODFLOW STRESS PERIOD      1     CURRENT TIME STEP:    1197     ITERATIONS:      10

 -----------------------------------------------------------------------------------

   CUMULATIVE VOLUMES               L**3   RATES FOR THIS TIME STEP           L**3/T
   ------------------                      ------------------------

                                     IN                                         IN
                                     --                                         --
        PRECIPITATION =        5.9235D+09          PRECIPITATION =                  
           STREAMFLOW =                               STREAMFLOW =                  
     GW BOUNDARY FLOW =                         GW BOUNDARY FLOW =                  


                                    OUT                                        OUT
                                    ---                                        ---
   EVAPOTRANSPIRATION =        2.9627D+09     EVAPOTRANSPIRATION =        1771673.17
           STREAMFLOW =        1.8438D+09             STREAMFLOW =        5235932.00
     GW BOUNDARY FLOW =                         GW BOUNDARY FLOW =                  

   INFLOWS - OUTFLOWS =        1.1170D+09     INFLOWS - OUTFLOWS =       -7007605.17
             --------                                   --------

 TOTAL STORAGE CHANGE =        1.0630D+09         STORAGE CHANGE =       -7035777.14
       --------------                             --------------
         LAND SURFACE =        5.6881D+08           LAND SURFACE =       -1899310.75
            SOIL ZONE =        9893085.08              SOIL ZONE =         270359.84
     UNSATURATED ZONE =       -1.2412D+07       UNSATURATED ZONE =          22733.96
       SATURATED ZONE =       -7.4343D+07         SATURATED ZONE =         -94646.20
                LAKES =        5.7102D+08                  LAKES =       -5334914.00

 OVERALL BUDGET ERROR =        5.4025D+07           BUDGET ERROR =          28171.97


  PERCENT DISCREPANCY =              0.92    PERCENT DISCREPANCY =              0.40



1
 SUMMARY VOLUMETRIC BUDGET FOR GSFLOW 
 DATE: 01 17 1984              CUMULATIVE TIME STEP:    1204
 MODFLOW STRESS PERIOD      1     CURRENT TIME STEP:    1204     ITERATIONS:       3

 -----------------------------------------------------------------------------------

   CUMULATIVE VOLUMES               L**3   RATES FOR THIS TIME STEP           L**3/T
   ------------------                      ------------------------

                                     IN                                         IN
                                     --                                         --
        PRECIPITATION =        5.9475D+09          PRECIPITATION =                  
           STREAMFLOW =                               STREAMFLOW =                  
     GW BOUNDARY FLOW =                         GW BOUNDARY FLOW =                  


                                    OUT                                        OUT
                                    ---                                        ---
   EVAPOTRANSPIRATION =        2.9665D+09     EVAPOTRANSPIRATION =         518751.37
           STREAMFLOW =        1.8795D+09             STREAMFLOW =        5015583.00
     GW BOUNDARY FLOW =                         GW BOUNDARY FLOW =                  

   INFLOWS - OUTFLOWS =        1.1015D+09     INFLOWS - OUTFLOWS =       -5534334.37
             --------                                   --------

 TOTAL STORAGE CHANGE =        1.0473D+09         STORAGE CHANGE =       -5543536.00
       --------------                             --------------
         LAND SURFACE =        5.8433D+08           LAND SURFACE =        -355918.57
            SOIL ZONE =        8946726.64              SOIL ZONE =         -93818.94
     UNSATURATED ZONE =       -1.2325D+07       UNSATURATED ZONE =            203.69
       SATURATED ZONE =       -7.5428D+07         SATURATED ZONE =        -162023.19
                LAKES =        5.4181D+08                  LAKES =       -4931979.00

 OVERALL BUDGET ERROR =        5.4130D+07           BUDGET ERROR =           9201.64


  PERCENT DISCREPANCY =              0.91    PERCENT DISCREPANCY =              0.17



1
 SUMMARY VOLUMETRIC BUDGET FOR GSFLOW 
 DATE: 01 24 1984              CUMULATIVE TIME STEP:    1211
 MODFLOW STRESS PERIOD      1     CURRENT TIME STEP:    1211     ITERATIONS:       4

 -----------------------------------------------------------------------------------

   CUMULATIVE VOLUMES               L**3   RATES FOR THIS TIME STEP           L**3/T
   ------------------                      ------------------------

                                     IN                                         IN
                                     --                                         --
        PRECIPITATION =        5.9535D+09          PRECIPITATION =                  
           STREAMFLOW =                               STREAMFLOW =                  
     GW BOUNDARY FLOW =                         GW BOUNDARY FLOW =                  


                                    OUT                                        OUT
                                    ---                                        ---
   EVAPOTRANSPIRATION =        2.9720D+09     EVAPOTRANSPIRATION =        1071112.43
           STREAMFLOW =        1.9143D+09             STREAMFLOW =        4917688.50
     GW BOUNDARY FLOW =                         GW BOUNDARY FLOW =                  

   INFLOWS - OUTFLOWS =        1.0672D+09     INFLOWS - OUTFLOWS =       -5988800.93
             --------                                   --------

 TOTAL STORAGE CHANGE =        1.0129D+09         STORAGE CHANGE =       -5993135.35
       --------------                             --------------
         LAND SURFACE =        5.8574D+08           LAND SURFACE =        -567657.68
            SOIL ZONE =        8447615.64              SOIL ZONE =         -61851.54
     UNSATURATED ZONE =       -1.2591D+07       UNSATURATED ZONE =         -44569.10
       SATURATED ZONE =       -7.6445D+07         SATURATED ZONE =        -158260.03
                LAKES =        5.0778D+08                  LAKES =       -5160797.00

 OVERALL BUDGET ERROR =        5.4229D+07           BUDGET ERROR =           4334.41


  PERCENT DISCREPANCY =              0.92    PERCENT DISCREPANCY =              0.07



