1
 SUMMARY VOLUMETRIC BUDGET FOR GSFLOW 
 DATE: 11 03 1983              CUMULATIVE TIME STEP:    1129
 MODFLOW STRESS PERIOD      1     CURRENT TIME STEP:       7     ITERATIONS:       9

 -----------------------------------------------------------------------------------

   CUMULATIVE VOLUMES               L**3   RATES FOR THIS TIME STEP           L**3/T
   ------------------                      ------------------------

                                     IN                                         IN
                                     --                                         --
        PRECIPITATION =        9.3057D+07          PRECIPITATION =        3230734.65
           STREAMFLOW =                               STREAMFLOW =                  
     GW BOUNDARY FLOW =                         GW BOUNDARY FLOW =                  


                                    OUT                                        OUT
                                    ---                                        ---
   EVAPOTRANSPIRATION =        8893414.92     EVAPOTRANSPIRATION =        2961507.55
           STREAMFLOW =        6116107.34             STREAMFLOW =        1569209.25
     GW BOUNDARY FLOW =                         GW BOUNDARY FLOW =                  

   INFLOWS - OUTFLOWS =        7.8047D+07     INFLOWS - OUTFLOWS =       -1299982.14
             --------                                   --------

 TOTAL STORAGE CHANGE =        7.6620D+07         STORAGE CHANGE =       -1684653.65
       --------------                             --------------
         LAND SURFACE =        1.0084D+07           LAND SURFACE =       -3866743.62
            SOIL ZONE =        3.5454D+07              SOIL ZONE =        1338447.40
     UNSATURATED ZONE =         -47820.55       UNSATURATED ZONE =          43425.78
       SATURATED ZONE =        1287176.19         SATURATED ZONE =         114057.05
                LAKES =        2.9843D+07                  LAKES =         686159.75

 OVERALL BUDGET ERROR =        1427682.30           BUDGET ERROR =         384671.50

  ***WARNING, FLUX RATES OFF > 3%

  PERCENT DISCREPANCY =              1.55    PERCENT DISCREPANCY =              8.14



