

                          U.S. Geological Survey
        Coupled Groundwater and Surface-water FLOW model (GSFLOW)
                         Version 2.1.0 01/30/2020

    An integration of the Precipitation-Runoff Modeling System (PRMS)
    and the Modular Groundwater Model (MODFLOW-NWT and MODFLOW-2005)


               Precipitation-Runoff Modeling System (PRMS)
                       Version 5.1.0 01/30/2020

                            MODFLOW-NWT-SWR1 
  U.S. GEOLOGICAL SURVEY MODULAR FINITE-DIFFERENCE GROUNDWATER-FLOW MODEL
                         WITH NEWTON FORMULATION
                         Version 1.1.4 4/01/2018
              BASED ON MODFLOW-2005 Version 1.12.0 02/03/2017
                      SWR1 Version 1.04.0 09/15/2016

              PROCESSES: GWF and OBS
              PACKAGES:  BAS, BCF, CHD, DE4, FHB, GAG, GHB,
                         HFB, HUF, LAK LPF, MNW1, MNW2, NWT,
                         PCG, SFR, SIP, UPW, UZF, WEL, SWI, SWT, LMT


        Process            Available Modules
--------------------------------------------------------------------
  Basin Definition: basin
    Cascading Flow: cascade
  Time Series Data: obs, water_use_read, dynamic_param_read
   Potet Solar Rad: soltab
  Temperature Dist: temp_1sta, temp_laps, temp_dist2, climate_hru
       Precip Dist: precip_1sta, precip_laps, precip_dist2,
                    climate_hru
Temp & Precip Dist: xyz_dist, ide_dist
    Solar Rad Dist: ccsolrad, ddsolrad, climate_hru
Transpiration Dist: transp_tindex, climate_hru, transp_frost
      Potential ET: potet_hamon, potet_jh, potet_pan, climate_hru,
                    potet_hs, potet_pt, potet_pm, potet_pm_sta
      Interception: intcp
     Snow Dynamics: snowcomp
    Surface Runoff: srunoff_smidx, srunoff_carea
         Soil Zone: soilzone
       Groundwater: gwflow
Streamflow Routing: strmflow, strmflow_in_out, muskingum,
                    muskingum_lake, muskingum_mann
Stream Temperature: stream_temp
    Output Summary: basin_sum, subbasin, map_results, prms_summary,
                    nhru_summary, nsub_summary, water_balance
                    basin_summary, nsegment_summary
     Preprocessing: write_climate_hru, frost_date
--------------------------------------------------------------------


    Active modules listed in the order in which they are called

        Process                   Module                Version Date
====================================================================
GSFLOW Computation Order       gsflow_prms                2020-01-10
Basin Definition               basin                      2019-11-14
Cascading Flow                 cascade                    2019-09-25
Common States and Fluxes       climateflow                2020-01-10
Potential Solar Radiation      soltab                     2016-09-09
PRMS Set Time Variables        prms_time                  2015-03-31
Time Series Data               obs                        2020-01-09
Temperature Distribution       temp_laps                  2018-01-16
Precipitation Distribution     precip_1sta                2016-10-21
Solar Radiation Distribution   ddsolrad                   2019-04-04
Transpiration Distribution     transp_tindex              2015-01-06
Potential Evapotranspiration   potet_jh                   2019-04-04
Canopy Interception            intcp                      2020-03-03
Snow Dynamics                  snowcomp                   2019-11-27
Surface Runoff                 srunoff_smidx              2020-03-03
Soil Zone Computations         soilzone                   2020-01-10
GSFLOW PRMS to MODFLOW         gsflow_prms2mf             2019-10-30
GSFLOW MODFLOW to PRMS         gsflow_mf2prms             2017-11-15
GSFLOW Output Budget Summary   gsflow_budget              2019-10-30
GSFLOW Output CSV Summary      gsflow_sum                 2019-10-31
Output Summary                 subbasin                   2019-12-02
====================================================================
GSFLOW MODFLOW main            gsflow_modflow             2019-10-30
====================================================================
MODFLOW Packages
====================================================================
UZF-NWT Package                gwf2uzf1_NWT               2019-09-10
SFR-NWT Package                gwf2sfr7_NWT               2017-03-08
LAK-NWT Package                gwf2lak7_NWT               2016-07-21
====================================================================

Using NAME file: ..\input\MODFLOW\tahoe15.nam

Using Solver Package: NWT 

Using Control File: .\Tahoe.control

Using Parameter File: ../input/PRMS/tahoe.param_v8_rgn

Writing var_init_file: ..\output\PRMS\prms_ic_14

Writing var_save_file: ..\output\PRMS\prms_ic_15

Writing PRMS Water Budget File: ..\output\prms\prms15.out

mxsziter = 200

Tolerance check for gvr_hru_pct:  0.5000000D-05

Percent difference between GVR mapping and active model domain:  0.0000000D+00

Water Budget print frequency is:   7

Writing GSFLOW Water Budget File: ..\output\gsflow_15.out

Writing GSFLOW CSV File: ..\output\gsflow_15.csv

Simulation time period: 1983/12/02 - 1984/01/30

====================================================================

Date: 1983/12/02; Stress:  1; Step:  1158; Simulation step:    1
                  MF iterations:       16; SZ iterations:     16

Date: 1983/12/03; Stress:  1; Step:  1159; Simulation step:    2
                  MF iterations:        3; SZ iterations:      3

Date: 1983/12/04; Stress:  1; Step:  1160; Simulation step:    3
                  MF iterations:        4; SZ iterations:      4

Date: 1983/12/05; Stress:  1; Step:  1161; Simulation step:    4
                  MF iterations:        9; SZ iterations:      9

Date: 1983/12/06; Stress:  1; Step:  1162; Simulation step:    5
                  MF iterations:       15; SZ iterations:     15

Date: 1983/12/07; Stress:  1; Step:  1163; Simulation step:    6
                  MF iterations:        4; SZ iterations:      4

Date: 1983/12/08; Stress:  1; Step:  1164; Simulation step:    7
                  MF iterations:        9; SZ iterations:      9

Date: 1983/12/09; Stress:  1; Step:  1165; Simulation step:    8
                  MF iterations:        5; SZ iterations:      5

Date: 1983/12/10; Stress:  1; Step:  1166; Simulation step:    9
                  MF iterations:        2; SZ iterations:      2

Date: 1983/12/11; Stress:  1; Step:  1167; Simulation step:   10
                  MF iterations:        5; SZ iterations:      5

Date: 1983/12/12; Stress:  1; Step:  1168; Simulation step:   11
                  MF iterations:        4; SZ iterations:      4

Date: 1983/12/13; Stress:  1; Step:  1169; Simulation step:   12
                  MF iterations:       15; SZ iterations:     15

Date: 1983/12/14; Stress:  1; Step:  1170; Simulation step:   13
                  MF iterations:        4; SZ iterations:      4

Date: 1983/12/15; Stress:  1; Step:  1171; Simulation step:   14
                  MF iterations:        5; SZ iterations:      5

Date: 1983/12/16; Stress:  1; Step:  1172; Simulation step:   15
                  MF iterations:        8; SZ iterations:      8

Date: 1983/12/17; Stress:  1; Step:  1173; Simulation step:   16
                  MF iterations:        3; SZ iterations:      3

Date: 1983/12/18; Stress:  1; Step:  1174; Simulation step:   17
                  MF iterations:        9; SZ iterations:      9

Date: 1983/12/19; Stress:  1; Step:  1175; Simulation step:   18
                  MF iterations:        3; SZ iterations:      3

Date: 1983/12/20; Stress:  1; Step:  1176; Simulation step:   19
                  MF iterations:        3; SZ iterations:      3

Date: 1983/12/21; Stress:  1; Step:  1177; Simulation step:   20
                  MF iterations:        3; SZ iterations:      3

Date: 1983/12/22; Stress:  1; Step:  1178; Simulation step:   21
                  MF iterations:       21; SZ iterations:     21

Date: 1983/12/23; Stress:  1; Step:  1179; Simulation step:   22
                  MF iterations:       10; SZ iterations:     10

Date: 1983/12/24; Stress:  1; Step:  1180; Simulation step:   23
                  MF iterations:       12; SZ iterations:     12

Date: 1983/12/25; Stress:  1; Step:  1181; Simulation step:   24
                  MF iterations:        6; SZ iterations:      6

Date: 1983/12/26; Stress:  1; Step:  1182; Simulation step:   25
                  MF iterations:        4; SZ iterations:      4

Date: 1983/12/27; Stress:  1; Step:  1183; Simulation step:   26
                  MF iterations:       28; SZ iterations:     28

Date: 1983/12/28; Stress:  1; Step:  1184; Simulation step:   27
                  MF iterations:        3; SZ iterations:      3

Date: 1983/12/29; Stress:  1; Step:  1185; Simulation step:   28
                  MF iterations:       13; SZ iterations:     13

Date: 1983/12/30; Stress:  1; Step:  1186; Simulation step:   29
                  MF iterations:        6; SZ iterations:      6

Date: 1983/12/31; Stress:  1; Step:  1187; Simulation step:   30
                  MF iterations:       12; SZ iterations:     12

Date: 1984/01/01; Stress:  1; Step:  1188; Simulation step:   31
                  MF iterations:        5; SZ iterations:      5

Date: 1984/01/02; Stress:  1; Step:  1189; Simulation step:   32
                  MF iterations:        6; SZ iterations:      6

Date: 1984/01/03; Stress:  1; Step:  1190; Simulation step:   33
                  MF iterations:        5; SZ iterations:      5

Date: 1984/01/04; Stress:  1; Step:  1191; Simulation step:   34
                  MF iterations:       11; SZ iterations:     11

Date: 1984/01/05; Stress:  1; Step:  1192; Simulation step:   35
                  MF iterations:       13; SZ iterations:     13

Date: 1984/01/06; Stress:  1; Step:  1193; Simulation step:   36
                  MF iterations:        8; SZ iterations:      8

Date: 1984/01/07; Stress:  1; Step:  1194; Simulation step:   37
                  MF iterations:        7; SZ iterations:      7

Date: 1984/01/08; Stress:  1; Step:  1195; Simulation step:   38
                  MF iterations:       13; SZ iterations:     13

Date: 1984/01/09; Stress:  1; Step:  1196; Simulation step:   39
                  MF iterations:        3; SZ iterations:      3

Date: 1984/01/10; Stress:  1; Step:  1197; Simulation step:   40
                  MF iterations:        8; SZ iterations:      8

Date: 1984/01/11; Stress:  1; Step:  1198; Simulation step:   41
                  MF iterations:        3; SZ iterations:      3

Date: 1984/01/12; Stress:  1; Step:  1199; Simulation step:   42
                  MF iterations:        2; SZ iterations:      2

Date: 1984/01/13; Stress:  1; Step:  1200; Simulation step:   43
                  MF iterations:       14; SZ iterations:     14

Date: 1984/01/14; Stress:  1; Step:  1201; Simulation step:   44
                  MF iterations:        5; SZ iterations:      5

Date: 1984/01/15; Stress:  1; Step:  1202; Simulation step:   45
                  MF iterations:        2; SZ iterations:      2

Date: 1984/01/16; Stress:  1; Step:  1203; Simulation step:   46
                  MF iterations:        8; SZ iterations:      8

Date: 1984/01/17; Stress:  1; Step:  1204; Simulation step:   47
                  MF iterations:        7; SZ iterations:      7

Date: 1984/01/18; Stress:  1; Step:  1205; Simulation step:   48
                  MF iterations:        4; SZ iterations:      4

Date: 1984/01/19; Stress:  1; Step:  1206; Simulation step:   49
                  MF iterations:       17; SZ iterations:     17

Date: 1984/01/20; Stress:  1; Step:  1207; Simulation step:   50
                  MF iterations:        8; SZ iterations:      8

Date: 1984/01/21; Stress:  1; Step:  1208; Simulation step:   51
                  MF iterations:        5; SZ iterations:      5

Date: 1984/01/22; Stress:  1; Step:  1209; Simulation step:   52
                  MF iterations:        6; SZ iterations:      6

Date: 1984/01/23; Stress:  1; Step:  1210; Simulation step:   53
                  MF iterations:       10; SZ iterations:     10

Date: 1984/01/24; Stress:  1; Step:  1211; Simulation step:   54
                  MF iterations:        4; SZ iterations:      4

Date: 1984/01/25; Stress:  1; Step:  1212; Simulation step:   55
                  MF iterations:        7; SZ iterations:      7

Date: 1984/01/26; Stress:  1; Step:  1213; Simulation step:   56
                  MF iterations:        6; SZ iterations:      6

Date: 1984/01/27; Stress:  1; Step:  1214; Simulation step:   57
                  MF iterations:        2; SZ iterations:      2

Date: 1984/01/28; Stress:  1; Step:  1215; Simulation step:   58
                  MF iterations:        3; SZ iterations:      3

Date: 1984/01/29; Stress:  1; Step:  1216; Simulation step:   59
                  MF iterations:        4; SZ iterations:      4

Date: 1984/01/30; Stress:  1; Step:  1217; Simulation step:   60
                  MF iterations:        8; SZ iterations:      8


 Run end date and time (yyyy/mm/dd hh:mm:ss): 2020/03/06 15:21:10
 Elapsed run time: 24.448 Seconds

 Number of time steps:     60;  Number of non-convergence:   0
 MF iterations:           448;  SZ iterations:             448
 Average MF iterations:  7.47;  Average SZ iterations:    7.47
 Maximum MF iterations:    28;  Maximum SZ iterations:      28

MF iteration distribution:      0    4    9    8    7    5    3    6    3    2
                                1    2    3    1    2    1    1    0    0    0
                                1    0    0    0    0    0    0    1    0    0
                                0    0    0    0    0    0    0    0    0    0
                                0    0    0    0    0    0    0    0    0    0
                                0    0    0    0    0    0    0    0    0    0
                                0    0    0    0    0    0    0    0    0    0
                                0    0    0    0    0    0    0    0    0    0



SZ computation distribution:    0    4    9    8    7    5    3    6    3    2
                                1    2    3    1    2    1    1    0    0    0
                                1    0    0    0    0    0    0    1    0    0
                                0    0    0    0    0    0    0    0    0    0
                                0    0    0    0    0    0    0    0    0    0
                                0    0    0    0    0    0    0    0    0    0
                                0    0    0    0    0    0    0    0    0    0
                                0    0    0    0    0    0    0    0    0    0



Normal termination of simulation
Execution elapsed time    0 minutes  0.00 seconds

