1
 SUMMARY VOLUMETRIC BUDGET FOR GSFLOW 
 DATE: 09 15 1983              CUMULATIVE TIME STEP:    1080
 MODFLOW STRESS PERIOD      1     CURRENT TIME STEP:       7     ITERATIONS:      29

 -----------------------------------------------------------------------------------

   CUMULATIVE VOLUMES               L**3   RATES FOR THIS TIME STEP           L**3/T
   ------------------                      ------------------------

                                     IN                                         IN
                                     --                                         --
        PRECIPITATION =                            PRECIPITATION =                  
           STREAMFLOW =                               STREAMFLOW =                  
     GW BOUNDARY FLOW =                         GW BOUNDARY FLOW =                  


                                    OUT                                        OUT
                                    ---                                        ---
   EVAPOTRANSPIRATION =        1.8657D+07     EVAPOTRANSPIRATION =        2583244.87
           STREAMFLOW =        9774285.25             STREAMFLOW =        1389678.38
     GW BOUNDARY FLOW =                         GW BOUNDARY FLOW =                  

   INFLOWS - OUTFLOWS =       -2.8431D+07     INFLOWS - OUTFLOWS =       -3972923.24
             --------                                   --------

 TOTAL STORAGE CHANGE =       -2.5306D+07         STORAGE CHANGE =       -3976216.37
       --------------                             --------------
         LAND SURFACE =        2195286.15           LAND SURFACE =        -108788.48
            SOIL ZONE =       -5636633.23              SOIL ZONE =        -720204.99
     UNSATURATED ZONE =        -660909.70       UNSATURATED ZONE =         -88409.09
       SATURATED ZONE =       -1554301.86         SATURATED ZONE =        -225374.31
                LAKES =       -1.9650D+07                  LAKES =       -2833439.50

 OVERALL BUDGET ERROR =       -3125120.58           BUDGET ERROR =           3293.13

  ***WARNING, CUMULATIVE VOLUME OFF > 5%

  PERCENT DISCREPANCY =            -11.63    PERCENT DISCREPANCY =              0.08



 Number of time steps:      7;  Number of non-convergence:   0
 MF iterations:           173;  SZ iterations:             173
 Average MF iterations: 24.71;  Average SZ iterations:   24.71
 Maximum MF iterations:    31;  Maximum SZ iterations:      31

MF iteration distribution:      0    0    0    0    0    0    0    0    0    0
                                0    0    0    0    0    1    0    0    0    0
                                0    1    1    0    0    2    0    0    1    0
                                1    0    0    0    0    0    0    0    0    0
                                0    0    0    0    0    0    0    0    0    0
                                0    0    0    0    0    0    0    0    0    0
                                0    0    0    0    0    0    0    0    0    0
                                0    0    0    0    0    0    0    0    0    0

SZ computation distribution:    0    0    0    0    0    0    0    0    0    0
                                0    0    0    0    0    1    0    0    0    0
                                0    1    1    0    0    2    0    0    1    0
                                1    0    0    0    0    0    0    0    0    0
                                0    0    0    0    0    0    0    0    0    0
                                0    0    0    0    0    0    0    0    0    0
                                0    0    0    0    0    0    0    0    0    0
                                0    0    0    0    0    0    0    0    0    0

