1
 SUMMARY VOLUMETRIC BUDGET FOR GSFLOW 
 DATE: 11 03 1983              CUMULATIVE TIME STEP:    1129
 MODFLOW STRESS PERIOD      1     CURRENT TIME STEP:       7     ITERATIONS:      16

 -----------------------------------------------------------------------------------

   CUMULATIVE VOLUMES               L**3   RATES FOR THIS TIME STEP           L**3/T
   ------------------                      ------------------------

                                     IN                                         IN
                                     --                                         --
        PRECIPITATION =        9.3057D+07          PRECIPITATION =        3230734.65
           STREAMFLOW =                               STREAMFLOW =                  
     GW BOUNDARY FLOW =                         GW BOUNDARY FLOW =                  


                                    OUT                                        OUT
                                    ---                                        ---
   EVAPOTRANSPIRATION =        8925560.96     EVAPOTRANSPIRATION =        2970937.65
           STREAMFLOW =        6116110.34             STREAMFLOW =        1569209.25
     GW BOUNDARY FLOW =                         GW BOUNDARY FLOW =                  

   INFLOWS - OUTFLOWS =        7.8015D+07     INFLOWS - OUTFLOWS =       -1309412.24
             --------                                   --------

 TOTAL STORAGE CHANGE =        7.7821D+07         STORAGE CHANGE =       -1410525.59
       --------------                             --------------
         LAND SURFACE =        1.0172D+07           LAND SURFACE =       -4040277.36
            SOIL ZONE =        3.6218D+07              SOIL ZONE =        1431577.26
     UNSATURATED ZONE =          -9075.24       UNSATURATED ZONE =          39981.35
       SATURATED ZONE =        1322195.46         SATURATED ZONE =         213378.91
                LAKES =        3.0117D+07                  LAKES =         944814.25

 OVERALL BUDGET ERROR =         194106.53           BUDGET ERROR =         101113.35


  PERCENT DISCREPANCY =              0.21    PERCENT DISCREPANCY =              2.20



 Number of time steps:      7;  Number of non-convergence:   0
 MF iterations:            69;  SZ iterations:              73
 Average MF iterations:  9.86;  Average SZ iterations:   10.43
 Maximum MF iterations:    16;  Maximum SZ iterations:      17

MF iteration distribution:      0    0    0    1    2    0    0    0    0    1
                                0    0    0    1    1    1    0    0    0    0
                                0    0    0    0    0    0    0    0    0    0
                                0    0    0    0    0    0    0    0    0    0
                                0    0    0    0    0    0    0    0    0    0
                                0    0    0    0    0    0    0    0    0    0
                                0    0    0    0    0    0    0    0    0    0
                                0    0    0    0    0    0    0    0    0    0

SZ computation distribution:    0    0    0    0    3    0    0    0    0    1
                                0    0    0    0    1    1    1    0    0    0
                                0    0    0    0    0    0    0    0    0    0
                                0    0    0    0    0    0    0    0    0    0
                                0    0    0    0    0    0    0    0    0    0
                                0    0    0    0    0    0    0    0    0    0
                                0    0    0    0    0    0    0    0    0    0
                                0    0    0    0    0    0    0    0    0    0

