1
 SUMMARY VOLUMETRIC BUDGET FOR GSFLOW 
 DATE: 09 08 1983              CUMULATIVE TIME STEP:    1073
 MODFLOW STRESS PERIOD      1     CURRENT TIME STEP:       7     ITERATIONS:      23

 -----------------------------------------------------------------------------------

   CUMULATIVE VOLUMES               L**3   RATES FOR THIS TIME STEP           L**3/T
   ------------------                      ------------------------

                                     IN                                         IN
                                     --                                         --
        PRECIPITATION =                            PRECIPITATION =                  
           STREAMFLOW =                               STREAMFLOW =                  
     GW BOUNDARY FLOW =                         GW BOUNDARY FLOW =                  


                                    OUT                                        OUT
                                    ---                                        ---
   EVAPOTRANSPIRATION =        2.1812D+07     EVAPOTRANSPIRATION =        3194575.42
           STREAMFLOW =        9762283.25             STREAMFLOW =        1401931.88
     GW BOUNDARY FLOW =                         GW BOUNDARY FLOW =                  

   INFLOWS - OUTFLOWS =       -3.1574D+07     INFLOWS - OUTFLOWS =       -4596507.29
             --------                                   --------

 TOTAL STORAGE CHANGE =       -3.1555D+07         STORAGE CHANGE =       -4588676.96
       --------------                             --------------
         LAND SURFACE =       -1718224.57           LAND SURFACE =        -186757.79
            SOIL ZONE =       -7462342.30              SOIL ZONE =        -989716.95
     UNSATURATED ZONE =        -881048.96       UNSATURATED ZONE =        -130821.88
       SATURATED ZONE =       -1743034.02         SATURATED ZONE =        -253247.84
                LAKES =       -1.9750D+07                  LAKES =       -3028132.50

 OVERALL BUDGET ERROR =         -19309.28           BUDGET ERROR =          -7830.33


  PERCENT DISCREPANCY =             -0.06    PERCENT DISCREPANCY =             -0.17



