1
 SUMMARY VOLUMETRIC BUDGET FOR GSFLOW 
 DATE: 09 22 1983              CUMULATIVE TIME STEP:    1087
 MODFLOW STRESS PERIOD      1     CURRENT TIME STEP:       7     ITERATIONS:      56

 -----------------------------------------------------------------------------------

   CUMULATIVE VOLUMES               L**3   RATES FOR THIS TIME STEP           L**3/T
   ------------------                      ------------------------

                                     IN                                         IN
                                     --                                         --
        PRECIPITATION =        1.8004D+07          PRECIPITATION =        1.8004D+07
           STREAMFLOW =                               STREAMFLOW =                  
     GW BOUNDARY FLOW =                         GW BOUNDARY FLOW =                  


                                    OUT                                        OUT
                                    ---                                        ---
   EVAPOTRANSPIRATION =        1.6112D+07     EVAPOTRANSPIRATION =        1938609.56
           STREAMFLOW =        1.2560D+07             STREAMFLOW =        2349880.75
     GW BOUNDARY FLOW =                         GW BOUNDARY FLOW =                  

   INFLOWS - OUTFLOWS =       -1.0668D+07     INFLOWS - OUTFLOWS =        1.3715D+07
             --------                                   --------

 TOTAL STORAGE CHANGE =       -1.0684D+07         STORAGE CHANGE =        1.3708D+07
       --------------                             --------------
         LAND SURFACE =        -349101.73           LAND SURFACE =         208443.04
            SOIL ZONE =        7023393.74              SOIL ZONE =        1.0667D+07
     UNSATURATED ZONE =        -881920.05       UNSATURATED ZONE =         -43825.48
       SATURATED ZONE =       -1234865.16         SATURATED ZONE =         159990.02
                LAKES =       -1.5242D+07                  LAKES =        2715975.50

 OVERALL BUDGET ERROR =          16453.06           BUDGET ERROR =           7568.98


  PERCENT DISCREPANCY =              0.06    PERCENT DISCREPANCY =              0.04



