1
 SUMMARY VOLUMETRIC BUDGET FOR GSFLOW 
 DATE: 10 06 1983              CUMULATIVE TIME STEP:    1101
 MODFLOW STRESS PERIOD      1     CURRENT TIME STEP:       7     ITERATIONS:      13

 -----------------------------------------------------------------------------------

   CUMULATIVE VOLUMES               L**3   RATES FOR THIS TIME STEP           L**3/T
   ------------------                      ------------------------

                                     IN                                         IN
                                     --                                         --
        PRECIPITATION =        1.2923D+07          PRECIPITATION =                  
           STREAMFLOW =                               STREAMFLOW =                  
     GW BOUNDARY FLOW =                         GW BOUNDARY FLOW =                  


                                    OUT                                        OUT
                                    ---                                        ---
   EVAPOTRANSPIRATION =        1.2138D+07     EVAPOTRANSPIRATION =        2737627.75
           STREAMFLOW =        3566884.39             STREAMFLOW =         134710.33
     GW BOUNDARY FLOW =                         GW BOUNDARY FLOW =                  

   INFLOWS - OUTFLOWS =       -2782477.93     INFLOWS - OUTFLOWS =       -2872338.07
             --------                                   --------

 TOTAL STORAGE CHANGE =       -1527472.53         STORAGE CHANGE =       -2873393.11
       --------------                             --------------
         LAND SURFACE =         686618.96           LAND SURFACE =         -34503.63
            SOIL ZONE =         706502.98              SOIL ZONE =       -1599943.91
     UNSATURATED ZONE =        -488346.30       UNSATURATED ZONE =         -75373.79
       SATURATED ZONE =        -787977.57         SATURATED ZONE =        -187061.22
                LAKES =       -1644270.59                  LAKES =        -976510.56

 OVERALL BUDGET ERROR =       -1255005.39           BUDGET ERROR =           1055.04

  ***WARNING, CUMULATIVE VOLUME OFF > 5%

  PERCENT DISCREPANCY =             -8.32    PERCENT DISCREPANCY =              0.04



 Number of time steps:      7;  Number of non-convergence:   0
 MF iterations:            72;  SZ iterations:              73
 Average MF iterations: 10.29;  Average SZ iterations:   10.43
 Maximum MF iterations:    13;  Maximum SZ iterations:      14

MF iteration distribution:      0    0    0    0    0    1    1    0    0    1
                                1    1    2    0    0    0    0    0    0    0
                                0    0    0    0    0    0    0    0    0    0
                                0    0    0    0    0    0    0    0    0    0
                                0    0    0    0    0    0    0    0    0    0
                                0    0    0    0    0    0    0    0    0    0
                                0    0    0    0    0    0    0    0    0    0
                                0    0    0    0    0    0    0    0    0    0

SZ computation distribution:    0    0    0    0    0    1    1    0    0    1
                                1    1    1    1    0    0    0    0    0    0
                                0    0    0    0    0    0    0    0    0    0
                                0    0    0    0    0    0    0    0    0    0
                                0    0    0    0    0    0    0    0    0    0
                                0    0    0    0    0    0    0    0    0    0
                                0    0    0    0    0    0    0    0    0    0
                                0    0    0    0    0    0    0    0    0    0

