1
 SUMMARY VOLUMETRIC BUDGET FOR GSFLOW 
 DATE: 11 03 1983              CUMULATIVE TIME STEP:    1129
 MODFLOW STRESS PERIOD      1     CURRENT TIME STEP:       7     ITERATIONS:       9

 -----------------------------------------------------------------------------------

   CUMULATIVE VOLUMES               L**3   RATES FOR THIS TIME STEP           L**3/T
   ------------------                      ------------------------

                                     IN                                         IN
                                     --                                         --
        PRECIPITATION =        9.3057D+07          PRECIPITATION =        3230734.65
           STREAMFLOW =                               STREAMFLOW =                  
     GW BOUNDARY FLOW =                         GW BOUNDARY FLOW =                  


                                    OUT                                        OUT
                                    ---                                        ---
   EVAPOTRANSPIRATION =        8911544.57     EVAPOTRANSPIRATION =        2968432.43
           STREAMFLOW =        6116110.34             STREAMFLOW =        1569209.25
     GW BOUNDARY FLOW =                         GW BOUNDARY FLOW =                  

   INFLOWS - OUTFLOWS =        7.8029D+07     INFLOWS - OUTFLOWS =       -1306907.03
             --------                                   --------

 TOTAL STORAGE CHANGE =        7.6697D+07         STORAGE CHANGE =       -1700209.31
       --------------                             --------------
         LAND SURFACE =        1.0084D+07           LAND SURFACE =       -3866743.62
            SOIL ZONE =        3.5479D+07              SOIL ZONE =        1337953.75
     UNSATURATED ZONE =         168300.95       UNSATURATED ZONE =          62186.66
       SATURATED ZONE =        1183822.43         SATURATED ZONE =         114045.72
                LAKES =        2.9782D+07                  LAKES =         652348.19

 OVERALL BUDGET ERROR =        1332662.97           BUDGET ERROR =         393302.28

  ***WARNING, FLUX RATES OFF > 3%

  PERCENT DISCREPANCY =              1.44    PERCENT DISCREPANCY =              8.31



