1
 SUMMARY VOLUMETRIC BUDGET FOR GSFLOW 
 DATE: 12 01 1983              CUMULATIVE TIME STEP:    1157
 MODFLOW STRESS PERIOD      1     CURRENT TIME STEP:       7     ITERATIONS:       3

 -----------------------------------------------------------------------------------

   CUMULATIVE VOLUMES               L**3   RATES FOR THIS TIME STEP           L**3/T
   ------------------                      ------------------------

                                     IN                                         IN
                                     --                                         --
        PRECIPITATION =        2.5846D+07          PRECIPITATION =                  
           STREAMFLOW =                               STREAMFLOW =                  
     GW BOUNDARY FLOW =                         GW BOUNDARY FLOW =                  


                                    OUT                                        OUT
                                    ---                                        ---
   EVAPOTRANSPIRATION =        3691469.91     EVAPOTRANSPIRATION =        1029723.15
           STREAMFLOW =        3.2981D+07             STREAMFLOW =        5040038.00
     GW BOUNDARY FLOW =                         GW BOUNDARY FLOW =                  

   INFLOWS - OUTFLOWS =       -1.0826D+07     INFLOWS - OUTFLOWS =       -6069761.15
             --------                                   --------

 TOTAL STORAGE CHANGE =       -1.1138D+07         STORAGE CHANGE =       -6092537.55
       --------------                             --------------
         LAND SURFACE =        1.7368D+07           LAND SURFACE =        -541937.60
            SOIL ZONE =        -787838.90              SOIL ZONE =         -93570.73
     UNSATURATED ZONE =         174900.68       UNSATURATED ZONE =          16686.57
       SATURATED ZONE =       -1212233.22         SATURATED ZONE =        -173235.28
                LAKES =       -2.6682D+07                  LAKES =       -5300480.50

 OVERALL BUDGET ERROR =         312046.98           BUDGET ERROR =          22776.39


  PERCENT DISCREPANCY =              0.85    PERCENT DISCREPANCY =              0.37



 Number of time steps:      7;  Number of non-convergence:   0
 MF iterations:            38;  SZ iterations:              39
 Average MF iterations:  5.43;  Average SZ iterations:    5.57
 Maximum MF iterations:    13;  Maximum SZ iterations:      13

MF iteration distribution:      0    1    3    0    0    0    2    0    0    0
                                0    0    1    0    0    0    0    0    0    0
                                0    0    0    0    0    0    0    0    0    0
                                0    0    0    0    0    0    0    0    0    0
                                0    0    0    0    0    0    0    0    0    0
                                0    0    0    0    0    0    0    0    0    0
                                0    0    0    0    0    0    0    0    0    0
                                0    0    0    0    0    0    0    0    0    0

SZ computation distribution:    0    0    4    0    0    0    2    0    0    0
                                0    0    1    0    0    0    0    0    0    0
                                0    0    0    0    0    0    0    0    0    0
                                0    0    0    0    0    0    0    0    0    0
                                0    0    0    0    0    0    0    0    0    0
                                0    0    0    0    0    0    0    0    0    0
                                0    0    0    0    0    0    0    0    0    0
                                0    0    0    0    0    0    0    0    0    0

