1
 SUMMARY VOLUMETRIC BUDGET FOR GSFLOW 
 DATE: 09 08 1983              CUMULATIVE TIME STEP:    1073
 MODFLOW STRESS PERIOD      1     CURRENT TIME STEP:       7     ITERATIONS:      17

 -----------------------------------------------------------------------------------

   CUMULATIVE VOLUMES               L**3   RATES FOR THIS TIME STEP           L**3/T
   ------------------                      ------------------------

                                     IN                                         IN
                                     --                                         --
        PRECIPITATION =                            PRECIPITATION =                  
           STREAMFLOW =                               STREAMFLOW =                  
     GW BOUNDARY FLOW =                         GW BOUNDARY FLOW =                  


                                    OUT                                        OUT
                                    ---                                        ---
   EVAPOTRANSPIRATION =        9434610.84     EVAPOTRANSPIRATION =        1266160.69
           STREAMFLOW =        9762283.25             STREAMFLOW =        1401931.88
     GW BOUNDARY FLOW =                         GW BOUNDARY FLOW =                  

   INFLOWS - OUTFLOWS =       -1.9197D+07     INFLOWS - OUTFLOWS =       -2668092.57
             --------                                   --------

 TOTAL STORAGE CHANGE =       -3.1679D+07         STORAGE CHANGE =       -4612677.47
       --------------                             --------------
         LAND SURFACE =       -1718241.71           LAND SURFACE =        -186760.09
            SOIL ZONE =       -7461386.12              SOIL ZONE =        -989680.05
     UNSATURATED ZONE =        -889407.55       UNSATURATED ZONE =        -130670.70
       SATURATED ZONE =       -1715834.23         SATURATED ZONE =        -252180.38
                LAKES =       -1.9894D+07                  LAKES =       -3053386.25

 OVERALL BUDGET ERROR =        1.2482D+07           BUDGET ERROR =        1944584.90

  ***WARNING, CUMULATIVE VOLUME OFF > 5%
  ***CAUTION, FLUX RATES OFF > 10%

  PERCENT DISCREPANCY =             49.07    PERCENT DISCREPANCY =             53.42



