1
 SUMMARY VOLUMETRIC BUDGET FOR GSFLOW 
 DATE: 10 13 1983              CUMULATIVE TIME STEP:    1108
 MODFLOW STRESS PERIOD      1     CURRENT TIME STEP:       7     ITERATIONS:      13

 -----------------------------------------------------------------------------------

   CUMULATIVE VOLUMES               L**3   RATES FOR THIS TIME STEP           L**3/T
   ------------------                      ------------------------

                                     IN                                         IN
                                     --                                         --
        PRECIPITATION =                            PRECIPITATION =                  
           STREAMFLOW =                               STREAMFLOW =                  
     GW BOUNDARY FLOW =                         GW BOUNDARY FLOW =                  


                                    OUT                                        OUT
                                    ---                                        ---
   EVAPOTRANSPIRATION =        1.4085D+07     EVAPOTRANSPIRATION =        1922353.67
           STREAMFLOW =        2638013.31             STREAMFLOW =         381722.84
     GW BOUNDARY FLOW =                         GW BOUNDARY FLOW =                  

   INFLOWS - OUTFLOWS =       -1.6723D+07     INFLOWS - OUTFLOWS =       -2304076.51
             --------                                   --------

 TOTAL STORAGE CHANGE =       -1.6725D+07         STORAGE CHANGE =       -2296416.37
       --------------                             --------------
         LAND SURFACE =        -101621.52           LAND SURFACE =         -20935.08
            SOIL ZONE =       -6927600.91              SOIL ZONE =        -881784.48
     UNSATURATED ZONE =        -460713.15       UNSATURATED ZONE =         -59545.64
       SATURATED ZONE =       -1398945.70         SATURATED ZONE =        -208318.92
                LAKES =       -7835708.19                  LAKES =       -1125832.25

 OVERALL BUDGET ERROR =           1350.15           BUDGET ERROR =          -7660.15


  PERCENT DISCREPANCY =              0.01    PERCENT DISCREPANCY =             -0.33



