====================================================================
Command line: 
..\..\..\bin\gsflow  .\Tahoe.control -set gsflow_output_file ..\output\tahoe_gsflow_cont.out -set csv_output_file ..\output\tahoe_gsflow_cont.csv -set save_vars_to_file 0

number of command line words: 11

Executable: ..\..\..\bin\gsflow

Control File: .\Tahoe.control
====================================================================
 WARNING, control parameter not used: stats_output_file, ignored
====================================================================
PRMS command line argument 2: -set
PRMS command line argument 3: gsflow_output_file
PRMS command line argument 4: ..\output\tahoe_gsflow_cont.out
PRMS command line argument 5: -set
PRMS command line argument 6: csv_output_file
PRMS command line argument 7: ..\output\tahoe_gsflow_cont.csv
PRMS command line argument 8: -set
PRMS command line argument 9: save_vars_to_file
PRMS command line argument 10: 0
====================================================================


                          U.S. Geological Survey
        Coupled Groundwater and Surface-water FLOW model (GSFLOW)
                         Version: 2.3.0 12/20/2022

    An integration of the Precipitation-Runoff Modeling System (PRMS)
    and the Modular Groundwater Model (MODFLOW-NWT and MODFLOW-2005)


               Precipitation-Runoff Modeling System (PRMS)
                       Version 5.3.0 12/20/2022

                            MODFLOW-NWT-SWR1 
  U.S. GEOLOGICAL SURVEY MODULAR FINITE-DIFFERENCE GROUNDWATER-FLOW MODEL
                         WITH NEWTON FORMULATION
                         Version 1.3.0 06/01/202
              BASED ON MODFLOW-2005 Version 1.12.0 02/03/2017
                      SWR1 Version 1.04.0 09/15/2016

              PROCESSES: GWF and OBS
              PACKAGES:  BAS, BCF, CHD, DE4, FHB, GAG, GHB,
                         HFB, HUF, LAK LPF, MNW1, MNW2, NWT, PCG,
                         AG, SFR, SIP, UPW, UZF, WEL, SWI, SWT, LMT

 
                     Github Commit Hash 0a338c0                                 
                                                                                
                                           
 

        Process            Available Modules
--------------------------------------------------------------------
  Basin Definition: basin
    Cascading Flow: cascade
  Time Series Data: obs, water_use_read, dynamic_param_read
                    dynamic_soil_param_read
   Potet Solar Rad: soltab
  Temperature Dist: temp_1sta, temp_laps, temp_dist2, climate_hru,
                    temp_map
       Precip Dist: precip_1sta, precip_laps, precip_dist2,
                    climate_hru, precip_map
Temp & Precip Dist: xyz_dist, ide_dist
    Solar Rad Dist: ccsolrad, ddsolrad, climate_hru, cloud_cover
Transpiration Dist: transp_tindex, climate_hru, transp_frost
      Potential ET: potet_hamon, potet_jh, potet_pan, climate_hru,
                    potet_hs, potet_pt, potet_pm, potet_pm_sta
      Interception: intcp
Snow & Glacr Dynam: snowcomp, glacr_melt
    Surface Runoff: srunoff_smidx, srunoff_carea
         Soil Zone: soilzone, soilzone_ag
       Groundwater: gwflow
Streamflow Routing: strmflow, strmflow_in_out, muskingum,
                    muskingum_lake, muskingum_mann, segment_to_hru
Streamflow Charact: strmflow_character
Stream Temperature: stream_temp
    Output Summary: basin_sum, subbasin, map_results, prms_summary,
                    nhru_summary, nsub_summary, water_balance
                    basin_summary, nsegment_summary, statvar_out
     Preprocessing: write_climate_hru, frost_date
--------------------------------------------------------------------


==========================================================================
Please give careful consideration to fixing all ERROR and WARNING messages
==========================================================================


    Active modules listed in the order in which they are called

        Process                    Module         Version Date
==============================================================
PRMS Computation Order          gsflow_prms         2022-12-20
Read Control File               read_control_file   2022-10-20
Read Parameter File             read_parameter_file 2022-01-12
Read Data File                  read_data_file      2022-06-02
 Varaible: solrad ignored as number of values = 0
 Varaible: pan_evap ignored as number of values = 0
 Varaible: form_data ignored as number of values = 0
 Varaible: rain_day ignored as number of values = 0
Basin Definition                basin               2022-09-20
Cascading Flow                  cascade             2021-11-19
Common States and Fluxes        climateflow         2022-12-06
Potential Solar Radiation       soltab              2022-10-24
Time Series Data                obs                 2022-09-07
Timestep Control                prms_time           2022-04-21
Temperature Distribution        temp_laps           2022-09-08
Precipitation Distribution      precip_1sta         2022-09-07
Solar Radiation Distribution    ddsolrad            2022-09-01
Transpiration Distribution      transp_tindex       2021-09-07
Potential Evapotranspiration    potet_jh            2021-11-19
Canopy Interception             intcp               2022-10-26
Snow Dynamics                   snowcomp            2022-09-07
Surface Runoff                  srunoff_smidx       2022-11-02
Soilzone Computations           soilzone            2022-12-19
GSFLOW PRMS to MODFLOW          gsflow_prms2mf      2022-02-19
GSFLOW MODFLOW to PRMS          gsflow_mf2prms      2022-02-18
GSFLOW Output Budget Summary    gsflow_budget       2022-12-19
GSFLOW Output CSV Summary       gsflow_sum          2022-08-26
Output Summary                  subbasin            2022-09-07
Values for parameter: mapvars_freq are ignored as the parameter is not used
Values for parameter: mapvars_units are ignored as the parameter is not used
Values for parameter: ncol are ignored as the parameter is not used
Values for parameter: gwflow_coef are ignored as the parameter is not used
Values for parameter: gwsink_coef are ignored as the parameter is not used
Values for parameter: gwstor_init are ignored as the parameter is not used
Values for parameter: gwstor_min are ignored as the parameter is not used
Values for parameter: outlet_sta are ignored as the parameter is not used
Values for parameter: subbasin_obsid are ignored as the parameter is not used
==============================================================
 WARNING, HRUs are assumed to be numbered from upper left corner
          gvr_cell_id values are set to 1 through nhru
GSFLOW MODFLOW main             gsflow_modflow      2022-10-20
====================================================================
MODFLOW Packages
====================================================================
UZF-NWT Package                 gwf2uzf1_NWT        2022-10-18
SFR-NWT Package                 gwf2sfr7_NWT        2022-10-18
LAK-NWT Package                 gwf2lak7_NWT        2021-09-28
====================================================================

Using NAME file: ../input/modflow/tahoe.nam

Using Solver Package: NWT 

modflow_time_zero: 1980/10/01

Using Control File: .\Tahoe.control

Using Parameter File: ../input/prms/tahoe.param_v8_rgn

Writing PRMS Water Budget File: ../output/prms/tahoe_cont.out

Percent difference between GVR mapping and active model domain:  0.0000000D+00

Water Budget print frequency is:   7

Writing GSFLOW Water Budget File: ..\output\tahoe_gsflow_cont.out

Writing GSFLOW CSV File: ..\output\tahoe_gsflow_cont.csv

Simulation time period: 1980/10/01 - 1984/01/30

====================================================================

Date: 1980/10/01; Stress: 1; Step: 1; Simulation step: 1
                  MF iterations: 50; SZ iterations: 50

Date: 1980/11/01; Stress: 1; Step: 32; Simulation step: 32
                  MF iterations: 5; SZ iterations: 5

Date: 1980/12/01; Stress: 1; Step: 62; Simulation step: 62
                  MF iterations: 2; SZ iterations: 2

Date: 1981/01/01; Stress: 1; Step: 93; Simulation step: 93
                  MF iterations: 3; SZ iterations: 3

Date: 1981/02/01; Stress: 1; Step: 124; Simulation step: 124
                  MF iterations: 24; SZ iterations: 24

Date: 1981/02/18; Stress: 1; Step: 141; Simulation step: 141
                  MF iterations: 93; SZ iterations: 93

Date: 1981/03/01; Stress: 1; Step: 152; Simulation step: 152
                  MF iterations: 36; SZ iterations: 36

Date: 1981/03/28; Stress: 1; Step: 179; Simulation step: 179
                  MF iterations: 141; SZ iterations: 141

Date: 1981/04/01; Stress: 1; Step: 183; Simulation step: 183
                  MF iterations: 36; SZ iterations: 36

Date: 1981/05/01; Stress: 1; Step: 213; Simulation step: 213
                  MF iterations: 50; SZ iterations: 50

Date: 1981/05/07; Stress: 1; Step: 219; Simulation step: 219
                  MF iterations: 76; SZ iterations: 76

Date: 1981/05/31; Stress: 1; Step: 243; Simulation step: 243
                  MF iterations: 112; SZ iterations: 112

Date: 1981/06/01; Stress: 1; Step: 244; Simulation step: 244
                  MF iterations: 53; SZ iterations: 53

Date: 1981/06/24; Stress: 1; Step: 267; Simulation step: 267
                  MF iterations: 117; SZ iterations: 117

Date: 1981/07/01; Stress: 1; Step: 274; Simulation step: 274
                  MF iterations: 24; SZ iterations: 24

Date: 1981/07/05; Stress: 1; Step: 278; Simulation step: 278
                  MF iterations: 87; SZ iterations: 87

Date: 1981/08/01; Stress: 1; Step: 305; Simulation step: 305
                  MF iterations: 46; SZ iterations: 46

Date: 1981/09/01; Stress: 1; Step: 336; Simulation step: 336
                  MF iterations: 28; SZ iterations: 28

Date: 1981/10/01; Stress: 1; Step: 366; Simulation step: 366
                  MF iterations: 12; SZ iterations: 12

Date: 1981/11/01; Stress: 1; Step: 397; Simulation step: 397
                  MF iterations: 9; SZ iterations: 9

Date: 1981/12/01; Stress: 1; Step: 427; Simulation step: 427
                  MF iterations: 21; SZ iterations: 21

Date: 1982/01/01; Stress: 1; Step: 458; Simulation step: 458
                  MF iterations: 38; SZ iterations: 38

Date: 1982/02/01; Stress: 1; Step: 489; Simulation step: 489
                  MF iterations: 35; SZ iterations: 35

Date: 1982/03/01; Stress: 1; Step: 517; Simulation step: 517
                  MF iterations: 10; SZ iterations: 10

Date: 1982/04/01; Stress: 1; Step: 548; Simulation step: 548
                  MF iterations: 13; SZ iterations: 13

Date: 1982/04/19; Stress: 1; Step: 566; Simulation step: 566
                  MF iterations: 77; SZ iterations: 77

Date: 1982/05/01; Stress: 1; Step: 578; Simulation step: 578
                  MF iterations: 49; SZ iterations: 49

Date: 1982/06/01; Stress: 1; Step: 609; Simulation step: 609
                  MF iterations: 13; SZ iterations: 13

Date: 1982/07/01; Stress: 1; Step: 639; Simulation step: 639
                  MF iterations: 17; SZ iterations: 17

Date: 1982/08/01; Stress: 1; Step: 670; Simulation step: 670
                  MF iterations: 28; SZ iterations: 28

Date: 1982/09/01; Stress: 1; Step: 701; Simulation step: 701
                  MF iterations: 12; SZ iterations: 12

Change over storage:.00016; HRU: 1098 1982 10 1
Change over storage:.00006; HRU: 1099 1982 10 1
Change over storage:.00001; HRU: 1884 1982 10 1
Change over storage:.00002; HRU: 2300 1982 10 1
Change over storage:.00013; HRU: 2321 1982 10 1
Change over storage:.00003; HRU: 2334 1982 10 1
Change over storage:.00021; HRU: 2418 1982 10 1
Change over storage:.00002; HRU: 2526 1982 10 1
Change over storage:.00074; HRU: 2529 1982 10 1
Change over storage:.00006; HRU: 2542 1982 10 1
Change over storage:.00013; HRU: 2550 1982 10 1
Change over storage:.00017; HRU: 2631 1982 10 1
Change over storage:.00002; HRU: 2632 1982 10 1
Change over storage:.00008; HRU: 2654 1982 10 1
Change over storage:.00022; HRU: 2669 1982 10 1
Change over storage:.00004; HRU: 2749 1982 10 1
Change over storage:.00001; HRU: 2750 1982 10 1
Change over storage:.00020; HRU: 2752 1982 10 1
Change over storage:.00006; HRU: 2771 1982 10 1
Change over storage:.00006; HRU: 2775 1982 10 1
Change over storage:.00008; HRU: 2781 1982 10 1
Change over storage:.00002; HRU: 2856 1982 10 1
Change over storage:.00000; HRU: 2857 1982 10 1
Change over storage:.00019; HRU: 2860 1982 10 1
Change over storage:.00002; HRU: 2861 1982 10 1
Change over storage:.00007; HRU: 2862 1982 10 1
Change over storage:.00022; HRU: 2863 1982 10 1
Change over storage:.00010; HRU: 2864 1982 10 1
Change over storage:.00015; HRU: 2868 1982 10 1
Change over storage:.00009; HRU: 2875 1982 10 1
Change over storage:.00003; HRU: 2876 1982 10 1
Change over storage:.00009; HRU: 2888 1982 10 1
Change over storage:.00003; HRU: 2895 1982 10 1
Change over storage:.00001; HRU: 2970 1982 10 1
Change over storage:.00011; HRU: 2971 1982 10 1
Change over storage:.00030; HRU: 2972 1982 10 1
Change over storage:.00009; HRU: 2973 1982 10 1
Change over storage:.00008; HRU: 2974 1982 10 1
Change over storage:.00026; HRU: 2976 1982 10 1
Change over storage:.00011; HRU: 2980 1982 10 1
Change over storage:.00012; HRU: 2987 1982 10 1
Change over storage:.00028; HRU: 3004 1982 10 1
Change over storage:.00043; HRU: 3008 1982 10 1
Change over storage:.00052; HRU: 3080 1982 10 1
Change over storage:.00080; HRU: 3081 1982 10 1
Change over storage:.00042; HRU: 3085 1982 10 1
Change over storage:.00039; HRU: 3086 1982 10 1
Change over storage:.00033; HRU: 3088 1982 10 1
Change over storage:.00019; HRU: 3092 1982 10 1
Change over storage:.00016; HRU: 3099 1982 10 1
Change over storage:.00039; HRU: 3186 1982 10 1
Change over storage:.00078; HRU: 3187 1982 10 1
Change over storage:.00096; HRU: 3188 1982 10 1
Change over storage:.00060; HRU: 3190 1982 10 1
Change over storage:.00109; HRU: 3191 1982 10 1
Change over storage:.00015; HRU: 3192 1982 10 1
Change over storage:.00008; HRU: 3193 1982 10 1
Change over storage:.00031; HRU: 3194 1982 10 1
Change over storage:.00042; HRU: 3195 1982 10 1
Change over storage:.00008; HRU: 3200 1982 10 1
Change over storage:.00032; HRU: 3203 1982 10 1
Change over storage:.00002; HRU: 3231 1982 10 1
Change over storage:.00034; HRU: 3299 1982 10 1
Change over storage:.00036; HRU: 3301 1982 10 1
Change over storage:.00011; HRU: 3302 1982 10 1
Change over storage:.00009; HRU: 3306 1982 10 1
Change over storage:.00015; HRU: 3307 1982 10 1
Change over storage:.00015; HRU: 3308 1982 10 1
Change over storage:.00082; HRU: 3309 1982 10 1
Change over storage:.00031; HRU: 3312 1982 10 1
Change over storage:.00024; HRU: 3313 1982 10 1
Change over storage:.00040; HRU: 3314 1982 10 1
Change over storage:.00019; HRU: 3336 1982 10 1
Change over storage:.00006; HRU: 3346 1982 10 1
Change over storage:.00004; HRU: 3420 1982 10 1
Change over storage:.00058; HRU: 3421 1982 10 1
Change over storage:.00035; HRU: 3425 1982 10 1
Change over storage:.00010; HRU: 3455 1982 10 1
Change over storage:.00026; HRU: 3456 1982 10 1
Change over storage:.00047; HRU: 3512 1982 10 1
Change over storage:.00007; HRU: 3513 1982 10 1
Change over storage:.00012; HRU: 3522 1982 10 1
Change over storage:.00009; HRU: 3525 1982 10 1
Change over storage:.00037; HRU: 3531 1982 10 1
Change over storage:.00035; HRU: 3532 1982 10 1
Change over storage:.00018; HRU: 3533 1982 10 1
Change over storage:.00003; HRU: 3542 1982 10 1
Change over storage:.00002; HRU: 3543 1982 10 1
Change over storage:.00003; HRU: 3567 1982 10 1
Change over storage:.00001; HRU: 3620 1982 10 1
Change over storage:.00016; HRU: 3626 1982 10 1
Change over storage:.00001; HRU: 3630 1982 10 1
Change over storage:.00023; HRU: 3634 1982 10 1
Change over storage:.00008; HRU: 3733 1982 10 1
Change over storage:.00028; HRU: 3739 1982 10 1
Change over storage:.00052; HRU: 3744 1982 10 1
Change over storage:.00032; HRU: 3745 1982 10 1
Change over storage:.00023; HRU: 3847 1982 10 1
Change over storage:.00004; HRU: 3848 1982 10 1
Change over storage:.00010; HRU: 3854 1982 10 1
Change over storage:.00031; HRU: 3856 1982 10 1
Change over storage:.00052; HRU: 3857 1982 10 1
Change over storage:.00097; HRU: 3858 1982 10 1
Change over storage:.00002; HRU: 3959 1982 10 1
Change over storage:.00002; HRU: 3965 1982 10 1
Change over storage:.00001; HRU: 3966 1982 10 1
Change over storage:.00025; HRU: 3968 1982 10 1
Change over storage:.00056; HRU: 3969 1982 10 1
Change over storage:.00017; HRU: 3990 1982 10 1
Change over storage:.00028; HRU: 4071 1982 10 1
Change over storage:.00006; HRU: 4072 1982 10 1
Change over storage:.00033; HRU: 4073 1982 10 1
Change over storage:.00004; HRU: 4075 1982 10 1
Change over storage:.00005; HRU: 4077 1982 10 1
Change over storage:.00047; HRU: 4080 1982 10 1
Change over storage:.00001; HRU: 4181 1982 10 1
Change over storage:.00001; HRU: 4182 1982 10 1
Change over storage:.00001; HRU: 4183 1982 10 1
Change over storage:.00022; HRU: 4184 1982 10 1
Change over storage:.00129; HRU: 4185 1982 10 1
Change over storage:.00026; HRU: 4186 1982 10 1
Change over storage:.00025; HRU: 4187 1982 10 1
Change over storage:.00034; HRU: 4188 1982 10 1
Change over storage:.00002; HRU: 4189 1982 10 1
Change over storage:.00007; HRU: 4190 1982 10 1
Change over storage:.00007; HRU: 4191 1982 10 1
Change over storage:.00075; HRU: 4239 1982 10 1
Change over storage:.00027; HRU: 4240 1982 10 1
Change over storage:.00004; HRU: 4241 1982 10 1
Change over storage:.00022; HRU: 4290 1982 10 1
Change over storage:.00116; HRU: 4291 1982 10 1
Change over storage:.00254; HRU: 4292 1982 10 1
Change over storage:.00242; HRU: 4293 1982 10 1
Change over storage:.00171; HRU: 4294 1982 10 1
Change over storage:.00126; HRU: 4295 1982 10 1
Change over storage:.00056; HRU: 4296 1982 10 1
Change over storage:.00050; HRU: 4297 1982 10 1
Change over storage:.00024; HRU: 4298 1982 10 1
Change over storage:.00046; HRU: 4299 1982 10 1
Change over storage:.00053; HRU: 4300 1982 10 1
Change over storage:.00066; HRU: 4301 1982 10 1
Change over storage:.00038; HRU: 4302 1982 10 1
Change over storage:.00036; HRU: 4303 1982 10 1
Change over storage:.00053; HRU: 4350 1982 10 1
Change over storage:.00009; HRU: 4352 1982 10 1
Change over storage:.00047; HRU: 4406 1982 10 1
Change over storage:.00022; HRU: 4407 1982 10 1
Change over storage:.00007; HRU: 4408 1982 10 1
Change over storage:.00070; HRU: 4410 1982 10 1
Change over storage:.00036; HRU: 4411 1982 10 1
Change over storage:.00007; HRU: 4412 1982 10 1
Change over storage:.00007; HRU: 4413 1982 10 1
Change over storage:.00053; HRU: 4415 1982 10 1
Change over storage:.00010; HRU: 4463 1982 10 1
Change over storage:.00004; HRU: 4464 1982 10 1
Change over storage:.00068; HRU: 4523 1982 10 1
Change over storage:.00075; HRU: 4524 1982 10 1
Change over storage:.00042; HRU: 4525 1982 10 1
Change over storage:.00014; HRU: 4526 1982 10 1
Change over storage:.00030; HRU: 4527 1982 10 1
Change over storage:.00031; HRU: 4574 1982 10 1
Change over storage:.00054; HRU: 4576 1982 10 1
Change over storage:.00014; HRU: 4577 1982 10 1
Change over storage:.00022; HRU: 4624 1982 10 1
Change over storage:.00012; HRU: 4625 1982 10 1
Change over storage:.00058; HRU: 4637 1982 10 1
Change over storage:.00007; HRU: 4686 1982 10 1
Change over storage:.00001; HRU: 4687 1982 10 1
Change over storage:.00061; HRU: 4689 1982 10 1
Change over storage:.00052; HRU: 4798 1982 10 1
Change over storage:.00026; HRU: 4801 1982 10 1
Change over storage:.00101; HRU: 4859 1982 10 1
Change over storage:.00120; HRU: 4860 1982 10 1
Change over storage:.00008; HRU: 4951 1982 10 1
Change over storage:.00014; HRU: 4968 1982 10 1
Change over storage:.00003; HRU: 5063 1982 10 1
Change over storage:.00012; HRU: 5065 1982 10 1
Change over storage:.00045; HRU: 5077 1982 10 1
Change over storage:.00008; HRU: 5082 1982 10 1
Change over storage:.00007; HRU: 5176 1982 10 1
Change over storage:.00021; HRU: 5177 1982 10 1
Change over storage:.00005; HRU: 5187 1982 10 1
Change over storage:.00007; HRU: 5188 1982 10 1
Change over storage:.00009; HRU: 5189 1982 10 1
Change over storage:.00061; HRU: 5190 1982 10 1
Change over storage:.00030; HRU: 5191 1982 10 1
Change over storage:.00021; HRU: 5192 1982 10 1
Change over storage:.00036; HRU: 5195 1982 10 1
Change over storage:.00053; HRU: 5286 1982 10 1
Change over storage:.00003; HRU: 5287 1982 10 1
Change over storage:.00008; HRU: 5288 1982 10 1
Change over storage:.00053; HRU: 5289 1982 10 1
Change over storage:.00070; HRU: 5290 1982 10 1
Change over storage:.00116; HRU: 5291 1982 10 1
Change over storage:.00045; HRU: 5292 1982 10 1
Change over storage:.00022; HRU: 5298 1982 10 1
Change over storage:.00025; HRU: 5299 1982 10 1
Change over storage:.00018; HRU: 5300 1982 10 1
Change over storage:.00028; HRU: 5301 1982 10 1
Change over storage:.00046; HRU: 5302 1982 10 1
Change over storage:.00054; HRU: 5303 1982 10 1
Change over storage:.00062; HRU: 5304 1982 10 1
Change over storage:.00043; HRU: 5305 1982 10 1
Change over storage:.00008; HRU: 5307 1982 10 1
Change over storage:.00057; HRU: 5308 1982 10 1
Change over storage:.00017; HRU: 5397 1982 10 1
Change over storage:.00007; HRU: 5398 1982 10 1
Change over storage:.00072; HRU: 5399 1982 10 1
Change over storage:.00082; HRU: 5400 1982 10 1
Change over storage:.00111; HRU: 5401 1982 10 1
Change over storage:.00048; HRU: 5406 1982 10 1
Change over storage:.00005; HRU: 5407 1982 10 1
Change over storage:.00062; HRU: 5408 1982 10 1
Change over storage:.00014; HRU: 5409 1982 10 1
Change over storage:.00002; HRU: 5410 1982 10 1
Change over storage:.00042; HRU: 5411 1982 10 1
Change over storage:.00055; HRU: 5412 1982 10 1
Change over storage:.00055; HRU: 5413 1982 10 1
Change over storage:.00053; HRU: 5414 1982 10 1
Change over storage:.00041; HRU: 5415 1982 10 1
Change over storage:.00010; HRU: 5416 1982 10 1
Change over storage:.00076; HRU: 5418 1982 10 1
Change over storage:.00095; HRU: 5419 1982 10 1
Change over storage:.00033; HRU: 5420 1982 10 1
Change over storage:.00044; HRU: 5520 1982 10 1
Change over storage:.00001; HRU: 5521 1982 10 1
Change over storage:.00003; HRU: 5522 1982 10 1
Change over storage:.00039; HRU: 5523 1982 10 1
Change over storage:.00026; HRU: 5524 1982 10 1
Change over storage:.00023; HRU: 5525 1982 10 1
Change over storage:.00023; HRU: 5526 1982 10 1
Change over storage:.00033; HRU: 5527 1982 10 1
Change over storage:.00015; HRU: 5528 1982 10 1
Change over storage:.00026; HRU: 5529 1982 10 1
Change over storage:.00006; HRU: 5531 1982 10 1
Change over storage:.00013; HRU: 5582 1982 10 1
Change over storage:.00000; HRU: 5584 1982 10 1
Change over storage:.00047; HRU: 5634 1982 10 1
Change over storage:.00030; HRU: 5635 1982 10 1
Change over storage:.00050; HRU: 5636 1982 10 1
Change over storage:.00010; HRU: 5637 1982 10 1
Change over storage:.00033; HRU: 5639 1982 10 1
Change over storage:.00040; HRU: 5643 1982 10 1
Change over storage:.00013; HRU: 5694 1982 10 1
Change over storage:.00048; HRU: 5747 1982 10 1
Change over storage:.00036; HRU: 5748 1982 10 1
Change over storage:.00025; HRU: 5749 1982 10 1
Change over storage:.00003; HRU: 5750 1982 10 1
Change over storage:.00015; HRU: 5751 1982 10 1
Change over storage:.00014; HRU: 5845 1982 10 1
Change over storage:.00030; HRU: 5846 1982 10 1
Change over storage:.00029; HRU: 5847 1982 10 1
Change over storage:.00069; HRU: 5848 1982 10 1
Change over storage:.00019; HRU: 5850 1982 10 1
Change over storage:.00046; HRU: 5860 1982 10 1
Change over storage:.00040; HRU: 5861 1982 10 1
Change over storage:.00018; HRU: 5862 1982 10 1
Change over storage:.00003; HRU: 5960 1982 10 1
Change over storage:.00051; HRU: 5965 1982 10 1
Change over storage:.00055; HRU: 5966 1982 10 1
Change over storage:.00026; HRU: 5972 1982 10 1
Change over storage:.00048; HRU: 5973 1982 10 1
Change over storage:.00047; HRU: 5974 1982 10 1
Change over storage:.00044; HRU: 5975 1982 10 1
Change over storage:.00038; HRU: 6079 1982 10 1
Change over storage:.00018; HRU: 6081 1982 10 1
Change over storage:.00007; HRU: 6145 1982 10 1
Change over storage:.00016; HRU: 6185 1982 10 1
Change over storage:.00032; HRU: 6186 1982 10 1
Change over storage:.00024; HRU: 6187 1982 10 1
Change over storage:.00014; HRU: 6192 1982 10 1
Change over storage:.00002; HRU: 6193 1982 10 1
Change over storage:.00048; HRU: 6256 1982 10 1
Change over storage:.00023; HRU: 6257 1982 10 1
Change over storage:.00003; HRU: 6298 1982 10 1
Change over storage:.00009; HRU: 6300 1982 10 1
Change over storage:.00047; HRU: 6304 1982 10 1
Change over storage:.00047; HRU: 6366 1982 10 1
Change over storage:.00065; HRU: 6368 1982 10 1
Change over storage:.00048; HRU: 6369 1982 10 1
Change over storage:.00034; HRU: 6370 1982 10 1
Change over storage:.00003; HRU: 6412 1982 10 1
Change over storage:.00018; HRU: 6417 1982 10 1
Change over storage:.00079; HRU: 6477 1982 10 1
Change over storage:.00078; HRU: 6478 1982 10 1
Change over storage:.00059; HRU: 6479 1982 10 1
Change over storage:.00007; HRU: 6480 1982 10 1
Change over storage:.00044; HRU: 6524 1982 10 1
Change over storage:.00027; HRU: 6525 1982 10 1
Change over storage:.00058; HRU: 6589 1982 10 1
Change over storage:.00071; HRU: 6590 1982 10 1
Change over storage:.00053; HRU: 6591 1982 10 1
Change over storage:.00008; HRU: 6597 1982 10 1
Change over storage:.00026; HRU: 6636 1982 10 1
Change over storage:.00010; HRU: 6637 1982 10 1
Change over storage:.00064; HRU: 6701 1982 10 1
Change over storage:.00078; HRU: 6703 1982 10 1
Change over storage:.00056; HRU: 6704 1982 10 1
Change over storage:.00006; HRU: 6814 1982 10 1
Change over storage:.00030; HRU: 6816 1982 10 1
Change over storage:.00068; HRU: 6929 1982 10 1
Change over storage:.00002; HRU: 7159 1982 10 1
Change over storage:.00000; HRU: 7271 1982 10 1
Change over storage:.00004; HRU: 7290 1982 10 1
Change over storage:.00008; HRU: 7291 1982 10 1
Change over storage:.00004; HRU: 7292 1982 10 1
Change over storage:.00002; HRU: 7293 1982 10 1
Change over storage:.00001; HRU: 7295 1982 10 1
Change over storage:.00012; HRU: 7373 1982 10 1
Change over storage:.00021; HRU: 7407 1982 10 1
Change over storage:.00022; HRU: 7408 1982 10 1
Change over storage:.00053; HRU: 7485 1982 10 1
Change over storage:.00046; HRU: 7486 1982 10 1
Change over storage:.00004; HRU: 7496 1982 10 1
Change over storage:.00007; HRU: 7519 1982 10 1
Change over storage:.00024; HRU: 7520 1982 10 1
Change over storage:.00020; HRU: 7530 1982 10 1
Change over storage:.00068; HRU: 7533 1982 10 1
Change over storage:.00076; HRU: 7534 1982 10 1
Change over storage:.00088; HRU: 7535 1982 10 1
Change over storage:.00067; HRU: 7596 1982 10 1
Change over storage:.00042; HRU: 7597 1982 10 1
Change over storage:.00034; HRU: 7598 1982 10 1
Change over storage:.00012; HRU: 7599 1982 10 1
Change over storage:.00011; HRU: 7600 1982 10 1
Change over storage:.00004; HRU: 7601 1982 10 1
Change over storage:.00011; HRU: 7607 1982 10 1
Change over storage:.00001; HRU: 7627 1982 10 1
Change over storage:.00001; HRU: 7628 1982 10 1
Change over storage:.00002; HRU: 7629 1982 10 1
Change over storage:.00002; HRU: 7631 1982 10 1
Change over storage:.00014; HRU: 7633 1982 10 1
Change over storage:.00030; HRU: 7635 1982 10 1
Change over storage:.00049; HRU: 7709 1982 10 1
Change over storage:.00016; HRU: 7710 1982 10 1
Change over storage:.00017; HRU: 7711 1982 10 1
Change over storage:.00010; HRU: 7737 1982 10 1
Change over storage:.00001; HRU: 7738 1982 10 1
Change over storage:.00009; HRU: 7739 1982 10 1
Change over storage:.00004; HRU: 7740 1982 10 1
Change over storage:.00026; HRU: 7741 1982 10 1
Change over storage:.00001; HRU: 7742 1982 10 1
Change over storage:.00009; HRU: 7743 1982 10 1
Change over storage:.00008; HRU: 7744 1982 10 1
Change over storage:.00014; HRU: 7745 1982 10 1
Change over storage:.00027; HRU: 7746 1982 10 1
Change over storage:.00065; HRU: 7751 1982 10 1
Change over storage:.00047; HRU: 7822 1982 10 1
Change over storage:.00039; HRU: 7823 1982 10 1
Change over storage:.00018; HRU: 7824 1982 10 1
Change over storage:.00042; HRU: 7830 1982 10 1
Change over storage:.00001; HRU: 7846 1982 10 1
Change over storage:.00009; HRU: 7848 1982 10 1
Change over storage:.00039; HRU: 7849 1982 10 1
Change over storage:.00027; HRU: 7850 1982 10 1
Change over storage:.00085; HRU: 7853 1982 10 1
Change over storage:.00087; HRU: 7855 1982 10 1
Change over storage:.00046; HRU: 7856 1982 10 1
Change over storage:.00006; HRU: 7857 1982 10 1
Change over storage:.00011; HRU: 7858 1982 10 1
Change over storage:.00009; HRU: 7933 1982 10 1
Change over storage:.00020; HRU: 7936 1982 10 1
Change over storage:.00006; HRU: 7937 1982 10 1
Change over storage:.00077; HRU: 7959 1982 10 1
Change over storage:.00045; HRU: 7960 1982 10 1
Change over storage:.00008; HRU: 7961 1982 10 1
Change over storage:.00049; HRU: 7962 1982 10 1
Change over storage:.00005; HRU: 7963 1982 10 1
Change over storage:.00054; HRU: 7964 1982 10 1
Change over storage:.00139; HRU: 7965 1982 10 1
Change over storage:.00129; HRU: 7968 1982 10 1
Change over storage:.00144; HRU: 7969 1982 10 1
Change over storage:.00049; HRU: 7970 1982 10 1
Change over storage:.00005; HRU: 8044 1982 10 1
Change over storage:.00042; HRU: 8045 1982 10 1
Change over storage:.00021; HRU: 8049 1982 10 1
Change over storage:.00029; HRU: 8053 1982 10 1
Change over storage:.00044; HRU: 8073 1982 10 1
Change over storage:.00032; HRU: 8074 1982 10 1
Change over storage:.00009; HRU: 8075 1982 10 1
Change over storage:.00126; HRU: 8082 1982 10 1
Change over storage:.00065; HRU: 8083 1982 10 1
Change over storage:.00075; HRU: 8084 1982 10 1
Change over storage:.00017; HRU: 8085 1982 10 1
Change over storage:.00015; HRU: 8162 1982 10 1
Change over storage:.00021; HRU: 8163 1982 10 1
Change over storage:.00117; HRU: 8186 1982 10 1
Change over storage:.00085; HRU: 8194 1982 10 1
Change over storage:.00005; HRU: 8202 1982 10 1
Change over storage:.00015; HRU: 8203 1982 10 1
Change over storage:.00109; HRU: 8297 1982 10 1
Change over storage:.00020; HRU: 8314 1982 10 1
Change over storage:.00022; HRU: 8315 1982 10 1
Change over storage:.00035; HRU: 8379 1982 10 1
Change over storage:.00058; HRU: 8380 1982 10 1
Change over storage:.00021; HRU: 8408 1982 10 1
Change over storage:.00080; HRU: 8409 1982 10 1
Change over storage:.00052; HRU: 8425 1982 10 1
Change over storage:.00138; HRU: 8426 1982 10 1
Change over storage:.00014; HRU: 8490 1982 10 1
Change over storage:.00031; HRU: 8491 1982 10 1
Change over storage:.00088; HRU: 8492 1982 10 1
Change over storage:.00006; HRU: 8499 1982 10 1
Change over storage:.00097; HRU: 8519 1982 10 1
Change over storage:.00101; HRU: 8520 1982 10 1
Change over storage:.00027; HRU: 8601 1982 10 1
Change over storage:.00023; HRU: 8602 1982 10 1
Change over storage:.00014; HRU: 8604 1982 10 1
Change over storage:.00033; HRU: 8605 1982 10 1
Change over storage:.00036; HRU: 8610 1982 10 1
Change over storage:.00034; HRU: 8629 1982 10 1
Change over storage:.00070; HRU: 8630 1982 10 1
Change over storage:.00033; HRU: 8715 1982 10 1
Change over storage:.00037; HRU: 8718 1982 10 1
Change over storage:.00001; HRU: 8721 1982 10 1
Change over storage:.00020; HRU: 8722 1982 10 1
Change over storage:.00040; HRU: 8826 1982 10 1
Change over storage:.00030; HRU: 8831 1982 10 1
Change over storage:.00024; HRU: 8833 1982 10 1
Change over storage:.00001; HRU: 8852 1982 10 1
Change over storage:.00026; HRU: 8874 1982 10 1
Change over storage:.00067; HRU: 8875 1982 10 1
Change over storage:.00003; HRU: 8936 1982 10 1
Change over storage:.00011; HRU: 8937 1982 10 1
Change over storage:.00039; HRU: 8938 1982 10 1
Change over storage:.00062; HRU: 8944 1982 10 1
Change over storage:.00057; HRU: 8945 1982 10 1
Change over storage:.00027; HRU: 8946 1982 10 1
Change over storage:.00013; HRU: 8947 1982 10 1
Change over storage:.00000; HRU: 8950 1982 10 1
Change over storage:.00011; HRU: 9048 1982 10 1
Change over storage:.00044; HRU: 9049 1982 10 1
Change over storage:.00113; HRU: 9057 1982 10 1
Change over storage:.00118; HRU: 9058 1982 10 1
Change over storage:.00025; HRU: 9091 1982 10 1
Change over storage:.00027; HRU: 9160 1982 10 1
Change over storage:.00052; HRU: 9161 1982 10 1
Change over storage:.00023; HRU: 9162 1982 10 1
Change over storage:.00006; HRU: 9193 1982 10 1
Change over storage:.00016; HRU: 9202 1982 10 1
Change over storage:.00047; HRU: 9206 1982 10 1
Change over storage:.00062; HRU: 9211 1982 10 1
Change over storage:.00046; HRU: 9274 1982 10 1
Change over storage:.00026; HRU: 9313 1982 10 1
Change over storage:.00051; HRU: 9322 1982 10 1
Change over storage:.00036; HRU: 9501 1982 10 1
Change over storage:.00019; HRU: 9533 1982 10 1
Change over storage:.00057; HRU: 9612 1982 10 1
Change over storage:.00034; HRU: 9617 1982 10 1
Change over storage:.00076; HRU: 9645 1982 10 1
Change over storage:.00036; HRU: 9752 1982 10 1
Change over storage:.00028; HRU: 9753 1982 10 1
Change over storage:.00007; HRU: 9754 1982 10 1
Change over storage:.00012; HRU: 9756 1982 10 1
Change over storage:.00011; HRU: 9757 1982 10 1
Change over storage:.00023; HRU: 9849 1982 10 1
Change over storage:.00042; HRU: 9862 1982 10 1
Change over storage:.00044; HRU: 9867 1982 10 1
Change over storage:.00064; HRU: 9868 1982 10 1
Change over storage:.00012; HRU: 9869 1982 10 1
Change over storage:.00078; HRU: 9948 1982 10 1
Change over storage:.00044; HRU: 9949 1982 10 1
Change over storage:.00116; HRU: 9955 1982 10 1
Change over storage:.00063; HRU: 9956 1982 10 1
Change over storage:.00020; HRU: 9957 1982 10 1
Change over storage:.00006; HRU: 9961 1982 10 1
Change over storage:.00069; HRU: 9980 1982 10 1
Change over storage:.00034; HRU: 9994 1982 10 1
Change over storage:.00007; HRU: 9995 1982 10 1
Change over storage:.00105; HRU: 10065 1982 10 1
Change over storage:.00110; HRU: 10066 1982 10 1
Change over storage:.00009; HRU: 10068 1982 10 1
Change over storage:.00048; HRU: 10070 1982 10 1
Change over storage:.00012; HRU: 10072 1982 10 1
Change over storage:.00028; HRU: 10091 1982 10 1
Change over storage:.00053; HRU: 10092 1982 10 1
Change over storage:.00052; HRU: 10104 1982 10 1
Change over storage:.00133; HRU: 10105 1982 10 1
Change over storage:.00075; HRU: 10106 1982 10 1
Change over storage:.00066; HRU: 10170 1982 10 1
Change over storage:.00051; HRU: 10178 1982 10 1
Change over storage:.00024; HRU: 10179 1982 10 1
Change over storage:.00011; HRU: 10181 1982 10 1
Change over storage:.00024; HRU: 10182 1982 10 1
Change over storage:.00022; HRU: 10185 1982 10 1
Change over storage:.00031; HRU: 10202 1982 10 1
Change over storage:.00075; HRU: 10203 1982 10 1
Change over storage:.00112; HRU: 10204 1982 10 1
Change over storage:.00019; HRU: 10213 1982 10 1
Change over storage:.00082; HRU: 10214 1982 10 1
Change over storage:.00160; HRU: 10215 1982 10 1
Change over storage:.00078; HRU: 10218 1982 10 1
Change over storage:.00002; HRU: 10284 1982 10 1
Change over storage:.00001; HRU: 10289 1982 10 1
Change over storage:.00009; HRU: 10290 1982 10 1
Change over storage:.00040; HRU: 10291 1982 10 1
Change over storage:.00055; HRU: 10292 1982 10 1
Change over storage:.00051; HRU: 10293 1982 10 1
Change over storage:.00008; HRU: 10295 1982 10 1
Change over storage:.00011; HRU: 10296 1982 10 1
Change over storage:.00002; HRU: 10299 1982 10 1
Change over storage:.00117; HRU: 10313 1982 10 1
Change over storage:.00086; HRU: 10314 1982 10 1
Change over storage:.00111; HRU: 10315 1982 10 1
Change over storage:.00149; HRU: 10316 1982 10 1
Change over storage:.00092; HRU: 10317 1982 10 1
Change over storage:.00043; HRU: 10324 1982 10 1
Change over storage:.00118; HRU: 10325 1982 10 1
Change over storage:.00010; HRU: 10398 1982 10 1
Change over storage:.00001; HRU: 10402 1982 10 1
Change over storage:.00013; HRU: 10403 1982 10 1
Change over storage:.00109; HRU: 10405 1982 10 1
Change over storage:.00071; HRU: 10407 1982 10 1
Change over storage:.00013; HRU: 10420 1982 10 1
Change over storage:.00006; HRU: 10421 1982 10 1
Change over storage:.00028; HRU: 10422 1982 10 1
Change over storage:.00026; HRU: 10424 1982 10 1
Change over storage:.00054; HRU: 10425 1982 10 1
Change over storage:.00071; HRU: 10426 1982 10 1
Change over storage:.00049; HRU: 10428 1982 10 1
Change over storage:.00061; HRU: 10429 1982 10 1
Change over storage:.00107; HRU: 10436 1982 10 1
Change over storage:.00012; HRU: 10444 1982 10 1
Change over storage:.00004; HRU: 10510 1982 10 1
Change over storage:.00033; HRU: 10511 1982 10 1
Change over storage:.00015; HRU: 10513 1982 10 1
Change over storage:.00036; HRU: 10514 1982 10 1
Change over storage:.00012; HRU: 10516 1982 10 1
Change over storage:.00051; HRU: 10537 1982 10 1
Change over storage:.00036; HRU: 10538 1982 10 1
Change over storage:.00027; HRU: 10539 1982 10 1
Change over storage:.00108; HRU: 10540 1982 10 1
Change over storage:.00119; HRU: 10541 1982 10 1
Change over storage:.00048; HRU: 10548 1982 10 1
Change over storage:.00024; HRU: 10549 1982 10 1
Change over storage:.00001; HRU: 10550 1982 10 1
Change over storage:.00050; HRU: 10554 1982 10 1
Change over storage:.00208; HRU: 10555 1982 10 1
Change over storage:.00217; HRU: 10556 1982 10 1
Change over storage:.00054; HRU: 10557 1982 10 1
Change over storage:.00035; HRU: 10620 1982 10 1
Change over storage:.00021; HRU: 10621 1982 10 1
Change over storage:.00052; HRU: 10622 1982 10 1
Change over storage:.00008; HRU: 10623 1982 10 1
Change over storage:.00016; HRU: 10625 1982 10 1
Change over storage:.00156; HRU: 10627 1982 10 1
Change over storage:.00022; HRU: 10650 1982 10 1
Change over storage:.00003; HRU: 10651 1982 10 1
Change over storage:.00110; HRU: 10653 1982 10 1
Change over storage:.00016; HRU: 10660 1982 10 1
Change over storage:.00012; HRU: 10664 1982 10 1
Change over storage:.00082; HRU: 10665 1982 10 1
Change over storage:.00052; HRU: 10666 1982 10 1
Change over storage:.00004; HRU: 10667 1982 10 1
Change over storage:.00028; HRU: 10668 1982 10 1
Change over storage:.00016; HRU: 10669 1982 10 1
Change over storage:.00078; HRU: 10732 1982 10 1
Change over storage:.00016; HRU: 10733 1982 10 1
Change over storage:.00009; HRU: 10734 1982 10 1
Change over storage:.00094; HRU: 10738 1982 10 1
Change over storage:.00016; HRU: 10762 1982 10 1
Change over storage:.00001; HRU: 10763 1982 10 1
Change over storage:.00022; HRU: 10766 1982 10 1
Change over storage:.00101; HRU: 10772 1982 10 1
Change over storage:.00050; HRU: 10779 1982 10 1
Change over storage:.00069; HRU: 10780 1982 10 1
Change over storage:.00089; HRU: 10781 1982 10 1
Change over storage:.00067; HRU: 10782 1982 10 1
Change over storage:.00139; HRU: 10784 1982 10 1
Change over storage:.00011; HRU: 10844 1982 10 1
Change over storage:.00028; HRU: 10845 1982 10 1
Change over storage:.00032; HRU: 10846 1982 10 1
Change over storage:.00010; HRU: 10848 1982 10 1
Change over storage:.00021; HRU: 10878 1982 10 1
Change over storage:.00078; HRU: 10896 1982 10 1
Change over storage:.00093; HRU: 10897 1982 10 1
Change over storage:.00032; HRU: 10955 1982 10 1
Change over storage:.00066; HRU: 10958 1982 10 1
Change over storage:.00037; HRU: 10959 1982 10 1
Change over storage:.00042; HRU: 10962 1982 10 1
Change over storage:.00001; HRU: 10984 1982 10 1
Change over storage:.00033; HRU: 10990 1982 10 1
Change over storage:.00047; HRU: 11006 1982 10 1
Change over storage:.00127; HRU: 11071 1982 10 1
Change over storage:.00044; HRU: 11072 1982 10 1
Change over storage:.00004; HRU: 11073 1982 10 1
Change over storage:.00001; HRU: 11081 1982 10 1
Change over storage:.00005; HRU: 11098 1982 10 1
Change over storage:.00000; HRU: 11106 1982 10 1
Change over storage:.00007; HRU: 11107 1982 10 1
Change over storage:.00014; HRU: 11108 1982 10 1
Change over storage:.00014; HRU: 11109 1982 10 1
Change over storage:.00002; HRU: 11110 1982 10 1
Change over storage:.00007; HRU: 11111 1982 10 1
Change over storage:.00017; HRU: 11112 1982 10 1
Change over storage:.00004; HRU: 11113 1982 10 1
Change over storage:.00036; HRU: 11114 1982 10 1
Change over storage:.00084; HRU: 11119 1982 10 1
Change over storage:.00002; HRU: 11182 1982 10 1
Change over storage:.00048; HRU: 11184 1982 10 1
Change over storage:.00032; HRU: 11185 1982 10 1
Change over storage:.00084; HRU: 11186 1982 10 1
Change over storage:.00038; HRU: 11187 1982 10 1
Change over storage:.00000; HRU: 11213 1982 10 1
Change over storage:.00018; HRU: 11227 1982 10 1
Change over storage:.00007; HRU: 11228 1982 10 1
Change over storage:.00005; HRU: 11230 1982 10 1
Change over storage:.00150; HRU: 11231 1982 10 1
Change over storage:.00000; HRU: 11297 1982 10 1
Change over storage:.00104; HRU: 11299 1982 10 1
Change over storage:.00014; HRU: 11300 1982 10 1
Change over storage:.00001; HRU: 11301 1982 10 1
Change over storage:.00003; HRU: 11339 1982 10 1
Change over storage:.00111; HRU: 11342 1982 10 1
Change over storage:.00097; HRU: 11347 1982 10 1
Change over storage:.00181; HRU: 11349 1982 10 1
Change over storage:.00261; HRU: 11350 1982 10 1
Change over storage:.00216; HRU: 11351 1982 10 1
Change over storage:.00079; HRU: 11352 1982 10 1
Change over storage:.00015; HRU: 11353 1982 10 1
Change over storage:.00025; HRU: 11453 1982 10 1
Change over storage:.00096; HRU: 11454 1982 10 1
Change over storage:.00080; HRU: 11460 1982 10 1
Change over storage:.00089; HRU: 11461 1982 10 1
Change over storage:.00010; HRU: 11462 1982 10 1
Change over storage:.00007; HRU: 11463 1982 10 1
Change over storage:.00043; HRU: 11464 1982 10 1
Change over storage:.00001; HRU: 11525 1982 10 1
Change over storage:.00098; HRU: 11565 1982 10 1
Change over storage:.00009; HRU: 11568 1982 10 1
Change over storage:.00004; HRU: 11570 1982 10 1
Change over storage:.00042; HRU: 11571 1982 10 1
Change over storage:.00028; HRU: 11573 1982 10 1
Change over storage:.00080; HRU: 11574 1982 10 1
Change over storage:.00094; HRU: 11575 1982 10 1
Change over storage:.00043; HRU: 11626 1982 10 1
Change over storage:.00040; HRU: 11627 1982 10 1
Change over storage:.00049; HRU: 11668 1982 10 1
Change over storage:.00119; HRU: 11669 1982 10 1
Change over storage:.00175; HRU: 11670 1982 10 1
Change over storage:.00066; HRU: 11671 1982 10 1
Change over storage:.00086; HRU: 11676 1982 10 1
Change over storage:.00004; HRU: 11679 1982 10 1
Change over storage:.00007; HRU: 11680 1982 10 1
Change over storage:.00052; HRU: 11682 1982 10 1
Change over storage:.00064; HRU: 11683 1982 10 1
Change over storage:.00126; HRU: 11689 1982 10 1
Change over storage:.00023; HRU: 11690 1982 10 1
Change over storage:.00002; HRU: 11749 1982 10 1
Change over storage:.00003; HRU: 11751 1982 10 1
Change over storage:.00001; HRU: 11777 1982 10 1
Change over storage:.00006; HRU: 11778 1982 10 1
Change over storage:.00036; HRU: 11779 1982 10 1
Change over storage:.00002; HRU: 11780 1982 10 1
Change over storage:.00003; HRU: 11782 1982 10 1
Change over storage:.00007; HRU: 11783 1982 10 1
Change over storage:.00014; HRU: 11784 1982 10 1
Change over storage:.00045; HRU: 11791 1982 10 1
Change over storage:.00103; HRU: 11792 1982 10 1
Change over storage:.00098; HRU: 11793 1982 10 1
Change over storage:.00087; HRU: 11794 1982 10 1
Change over storage:.00004; HRU: 11891 1982 10 1
Change over storage:.00014; HRU: 11892 1982 10 1
Change over storage:.00003; HRU: 11893 1982 10 1
Change over storage:.00010; HRU: 11894 1982 10 1
Change over storage:.00005; HRU: 11895 1982 10 1
Change over storage:.00024; HRU: 11896 1982 10 1
Change over storage:.00098; HRU: 11897 1982 10 1
Change over storage:.00169; HRU: 11898 1982 10 1
Change over storage:.00004; HRU: 11902 1982 10 1
Change over storage:.00044; HRU: 11903 1982 10 1
Change over storage:.00056; HRU: 11905 1982 10 1
Change over storage:.00030; HRU: 11909 1982 10 1
Change over storage:.00011; HRU: 11968 1982 10 1
Change over storage:.00011; HRU: 12004 1982 10 1
Change over storage:.00212; HRU: 12005 1982 10 1
Change over storage:.00218; HRU: 12006 1982 10 1
Change over storage:.00024; HRU: 12014 1982 10 1
Change over storage:.00088; HRU: 12016 1982 10 1
Change over storage:.00043; HRU: 12020 1982 10 1
Change over storage:.00063; HRU: 12021 1982 10 1
Change over storage:.00052; HRU: 12075 1982 10 1
Change over storage:.00019; HRU: 12078 1982 10 1
Change over storage:.00032; HRU: 12081 1982 10 1
Change over storage:.00003; HRU: 12082 1982 10 1
Change over storage:.00004; HRU: 12085 1982 10 1
Change over storage:.00009; HRU: 12115 1982 10 1
Change over storage:.00166; HRU: 12127 1982 10 1
Change over storage:.00002; HRU: 12131 1982 10 1
Change over storage:.00028; HRU: 12133 1982 10 1
Change over storage:.00032; HRU: 12134 1982 10 1
Change over storage:.00041; HRU: 12188 1982 10 1
Change over storage:.00008; HRU: 12190 1982 10 1
Change over storage:.00050; HRU: 12191 1982 10 1
Change over storage:.00005; HRU: 12192 1982 10 1
Change over storage:.00111; HRU: 12239 1982 10 1
Change over storage:.00003; HRU: 12241 1982 10 1
Change over storage:.00028; HRU: 12242 1982 10 1
Change over storage:.00016; HRU: 12243 1982 10 1
Change over storage:.00007; HRU: 12244 1982 10 1
Change over storage:.00020; HRU: 12299 1982 10 1
Change over storage:.00004; HRU: 12300 1982 10 1
Change over storage:.00012; HRU: 12302 1982 10 1
Change over storage:.00025; HRU: 12303 1982 10 1
Change over storage:.00044; HRU: 12349 1982 10 1
Change over storage:.00014; HRU: 12413 1982 10 1
Change over storage:.00004; HRU: 12417 1982 10 1
Change over storage:.00030; HRU: 12460 1982 10 1
Change over storage:.00093; HRU: 12461 1982 10 1
Change over storage:.00021; HRU: 12525 1982 10 1
Change over storage:.00040; HRU: 12526 1982 10 1
Change over storage:.00029; HRU: 12529 1982 10 1
Change over storage:.00052; HRU: 12569 1982 10 1
Change over storage:.00097; HRU: 12570 1982 10 1
Change over storage:.00142; HRU: 12571 1982 10 1
Change over storage:.00043; HRU: 12579 1982 10 1
Change over storage:.00065; HRU: 12635 1982 10 1
Change over storage:.00035; HRU: 12636 1982 10 1
Change over storage:.00015; HRU: 12637 1982 10 1
Change over storage:.00046; HRU: 12638 1982 10 1
Change over storage:.00016; HRU: 12640 1982 10 1
Change over storage:.00005; HRU: 12641 1982 10 1
Change over storage:.00019; HRU: 12642 1982 10 1
Change over storage:.00000; HRU: 12643 1982 10 1
Change over storage:.00020; HRU: 12678 1982 10 1
Change over storage:.00093; HRU: 12679 1982 10 1
Change over storage:.00074; HRU: 12680 1982 10 1
Change over storage:.00084; HRU: 12681 1982 10 1
Change over storage:.00002; HRU: 12687 1982 10 1
Change over storage:.00170; HRU: 12690 1982 10 1
Change over storage:.00043; HRU: 12747 1982 10 1
Change over storage:.00022; HRU: 12748 1982 10 1
Change over storage:.00030; HRU: 12749 1982 10 1
Change over storage:.00041; HRU: 12750 1982 10 1
Change over storage:.00017; HRU: 12751 1982 10 1
Change over storage:.00020; HRU: 12753 1982 10 1
Change over storage:.00027; HRU: 12754 1982 10 1
Change over storage:.00000; HRU: 12755 1982 10 1
Change over storage:.00022; HRU: 12757 1982 10 1
Change over storage:.00048; HRU: 12758 1982 10 1
Change over storage:.00035; HRU: 12788 1982 10 1
Change over storage:.00131; HRU: 12789 1982 10 1
Change over storage:.00077; HRU: 12791 1982 10 1
Change over storage:.00182; HRU: 12792 1982 10 1
Change over storage:.00042; HRU: 12799 1982 10 1
Change over storage:.00007; HRU: 12806 1982 10 1
Change over storage:.00038; HRU: 12857 1982 10 1
Change over storage:.00050; HRU: 12859 1982 10 1
Change over storage:.00030; HRU: 12860 1982 10 1
Change over storage:.00033; HRU: 12863 1982 10 1
Change over storage:.00041; HRU: 12864 1982 10 1
Change over storage:.00000; HRU: 12866 1982 10 1
Change over storage:.00023; HRU: 12867 1982 10 1
Change over storage:.00015; HRU: 12868 1982 10 1
Change over storage:.00109; HRU: 12899 1982 10 1
Change over storage:.00120; HRU: 12900 1982 10 1
Change over storage:.00076; HRU: 12904 1982 10 1
Change over storage:.00054; HRU: 12910 1982 10 1
Change over storage:.00085; HRU: 12911 1982 10 1
Change over storage:.00078; HRU: 12912 1982 10 1
Change over storage:.00084; HRU: 12971 1982 10 1
Change over storage:.00035; HRU: 12972 1982 10 1
Change over storage:.00072; HRU: 12973 1982 10 1
Change over storage:.00039; HRU: 12974 1982 10 1
Change over storage:.00013; HRU: 12976 1982 10 1
Change over storage:.00020; HRU: 12977 1982 10 1
Change over storage:.00003; HRU: 12978 1982 10 1
Change over storage:.00059; HRU: 13011 1982 10 1
Change over storage:.00017; HRU: 13015 1982 10 1
Change over storage:.00000; HRU: 13016 1982 10 1
Change over storage:.00011; HRU: 13021 1982 10 1
Change over storage:.00033; HRU: 13022 1982 10 1
Change over storage:.00046; HRU: 13023 1982 10 1
Change over storage:.00119; HRU: 13024 1982 10 1
Change over storage:.00068; HRU: 13030 1982 10 1
Change over storage:.00159; HRU: 13032 1982 10 1
Change over storage:.00046; HRU: 13083 1982 10 1
Change over storage:.00041; HRU: 13084 1982 10 1
Change over storage:.00081; HRU: 13085 1982 10 1
Change over storage:.00049; HRU: 13086 1982 10 1
Change over storage:.00047; HRU: 13087 1982 10 1
Change over storage:.00027; HRU: 13088 1982 10 1
Change over storage:.00002; HRU: 13090 1982 10 1
Change over storage:.00006; HRU: 13091 1982 10 1
Change over storage:.00002; HRU: 13094 1982 10 1
Change over storage:.00021; HRU: 13095 1982 10 1
Change over storage:.00022; HRU: 13096 1982 10 1
Change over storage:.00057; HRU: 13122 1982 10 1
Change over storage:.00025; HRU: 13128 1982 10 1
Change over storage:.00014; HRU: 13132 1982 10 1
Change over storage:.00130; HRU: 13134 1982 10 1
Change over storage:.00071; HRU: 13135 1982 10 1
Change over storage:.00134; HRU: 13136 1982 10 1
Change over storage:.00064; HRU: 13141 1982 10 1
Change over storage:.00084; HRU: 13142 1982 10 1
Change over storage:.00165; HRU: 13143 1982 10 1
Change over storage:.00072; HRU: 13195 1982 10 1
Change over storage:.00050; HRU: 13196 1982 10 1
Change over storage:.00035; HRU: 13197 1982 10 1
Change over storage:.00022; HRU: 13199 1982 10 1
Change over storage:.00012; HRU: 13200 1982 10 1
Change over storage:.00026; HRU: 13201 1982 10 1
Change over storage:.00005; HRU: 13202 1982 10 1
Change over storage:.00026; HRU: 13203 1982 10 1
Change over storage:.00006; HRU: 13206 1982 10 1
Change over storage:.00000; HRU: 13207 1982 10 1
Change over storage:.00001; HRU: 13210 1982 10 1
Change over storage:.00041; HRU: 13235 1982 10 1
Change over storage:.00008; HRU: 13243 1982 10 1
Change over storage:.00075; HRU: 13244 1982 10 1
Change over storage:.00122; HRU: 13245 1982 10 1
Change over storage:.00075; HRU: 13246 1982 10 1
Change over storage:.00205; HRU: 13247 1982 10 1
Change over storage:.00007; HRU: 13254 1982 10 1
Change over storage:.00086; HRU: 13255 1982 10 1
Change over storage:.00119; HRU: 13307 1982 10 1
Change over storage:.00022; HRU: 13310 1982 10 1
Change over storage:.00009; HRU: 13312 1982 10 1
Change over storage:.00003; HRU: 13314 1982 10 1
Change over storage:.00009; HRU: 13316 1982 10 1
Change over storage:.00054; HRU: 13317 1982 10 1
Change over storage:.00020; HRU: 13318 1982 10 1
Change over storage:.00066; HRU: 13347 1982 10 1
Change over storage:.00131; HRU: 13356 1982 10 1
Change over storage:.00087; HRU: 13359 1982 10 1
Change over storage:.00003; HRU: 13361 1982 10 1
Change over storage:.00091; HRU: 13366 1982 10 1
Change over storage:.00030; HRU: 13367 1982 10 1
Change over storage:.00010; HRU: 13368 1982 10 1
Change over storage:.00057; HRU: 13369 1982 10 1
Change over storage:.00053; HRU: 13370 1982 10 1
Change over storage:.00005; HRU: 13422 1982 10 1
Change over storage:.00028; HRU: 13423 1982 10 1
Change over storage:.00027; HRU: 13429 1982 10 1
Change over storage:.00055; HRU: 13460 1982 10 1
Change over storage:.00151; HRU: 13467 1982 10 1
Change over storage:.00077; HRU: 13472 1982 10 1
Change over storage:.00092; HRU: 13478 1982 10 1
Change over storage:.00061; HRU: 13481 1982 10 1
Change over storage:.00080; HRU: 13482 1982 10 1
Change over storage:.00033; HRU: 13533 1982 10 1
Change over storage:.00005; HRU: 13534 1982 10 1
Change over storage:.00023; HRU: 13535 1982 10 1
Change over storage:.00052; HRU: 13572 1982 10 1
Change over storage:.00063; HRU: 13577 1982 10 1
Change over storage:.00103; HRU: 13578 1982 10 1
Change over storage:.00091; HRU: 13579 1982 10 1
Change over storage:.00050; HRU: 13586 1982 10 1
Change over storage:.00003; HRU: 13587 1982 10 1
Change over storage:.00002; HRU: 13588 1982 10 1
Change over storage:.00145; HRU: 13589 1982 10 1
Change over storage:.00033; HRU: 13592 1982 10 1
Change over storage:.00074; HRU: 13593 1982 10 1
Change over storage:.00037; HRU: 13594 1982 10 1
Change over storage:.00014; HRU: 13645 1982 10 1
Change over storage:.00012; HRU: 13685 1982 10 1
Change over storage:.00149; HRU: 13690 1982 10 1
Change over storage:.00182; HRU: 13691 1982 10 1
Change over storage:.00066; HRU: 13692 1982 10 1
Change over storage:.00026; HRU: 13700 1982 10 1
Change over storage:.00108; HRU: 13708 1982 10 1
Change over storage:.00056; HRU: 13710 1982 10 1
Change over storage:.00056; HRU: 13755 1982 10 1
Change over storage:.00056; HRU: 13756 1982 10 1
Change over storage:.00036; HRU: 13757 1982 10 1
Change over storage:.00068; HRU: 13802 1982 10 1
Change over storage:.00089; HRU: 13804 1982 10 1
Change over storage:.00049; HRU: 13821 1982 10 1
Change over storage:.00060; HRU: 13917 1982 10 1
Change over storage:.00012; HRU: 13930 1982 10 1
Change over storage:.00054; HRU: 13931 1982 10 1
Change over storage:.00059; HRU: 14020 1982 10 1
Change over storage:.00033; HRU: 14021 1982 10 1
Change over storage:.00023; HRU: 14022 1982 10 1
Change over storage:.00041; HRU: 14041 1982 10 1
Change over storage:.00088; HRU: 14042 1982 10 1
Change over storage:.00082; HRU: 14043 1982 10 1
Change over storage:.00038; HRU: 14048 1982 10 1
Change over storage:.00015; HRU: 14098 1982 10 1
Change over storage:.00008; HRU: 14099 1982 10 1
Change over storage:.00115; HRU: 14155 1982 10 1
Change over storage:.00075; HRU: 14156 1982 10 1
Change over storage:.00024; HRU: 14210 1982 10 1
Change over storage:.00030; HRU: 14211 1982 10 1
Change over storage:.00022; HRU: 14212 1982 10 1
Change over storage:.00024; HRU: 14214 1982 10 1
Change over storage:.00079; HRU: 14255 1982 10 1
Change over storage:.00030; HRU: 14256 1982 10 1
Change over storage:.00086; HRU: 14268 1982 10 1
Change over storage:.00014; HRU: 14314 1982 10 1
Change over storage:.00026; HRU: 14319 1982 10 1
Change over storage:.00060; HRU: 14321 1982 10 1
Change over storage:.00024; HRU: 14322 1982 10 1
Change over storage:.00038; HRU: 14324 1982 10 1
Change over storage:.00022; HRU: 14325 1982 10 1
Change over storage:.00015; HRU: 14358 1982 10 1
Change over storage:.00226; HRU: 14367 1982 10 1
Change over storage:.00038; HRU: 14369 1982 10 1
Change over storage:.00034; HRU: 14370 1982 10 1
Change over storage:.00190; HRU: 14380 1982 10 1
Change over storage:.00003; HRU: 14383 1982 10 1
Change over storage:.00057; HRU: 14384 1982 10 1
Change over storage:.00056; HRU: 14432 1982 10 1
Change over storage:.00047; HRU: 14433 1982 10 1
Change over storage:.00002; HRU: 14471 1982 10 1
Change over storage:.00003; HRU: 14473 1982 10 1
Change over storage:.00127; HRU: 14492 1982 10 1
Change over storage:.00020; HRU: 14541 1982 10 1
Change over storage:.00020; HRU: 14544 1982 10 1
Change over storage:.00050; HRU: 14545 1982 10 1
Change over storage:.00053; HRU: 14546 1982 10 1
Change over storage:.00024; HRU: 14548 1982 10 1
Change over storage:.00041; HRU: 14549 1982 10 1
Change over storage:.00012; HRU: 14550 1982 10 1
Change over storage:.00024; HRU: 14585 1982 10 1
Change over storage:.00112; HRU: 14603 1982 10 1
Change over storage:.00004; HRU: 14604 1982 10 1
Change over storage:.00008; HRU: 14652 1982 10 1
Change over storage:.00040; HRU: 14653 1982 10 1
Change over storage:.00045; HRU: 14656 1982 10 1
Change over storage:.00016; HRU: 14657 1982 10 1
Change over storage:.00010; HRU: 14660 1982 10 1
Change over storage:.00052; HRU: 14715 1982 10 1
Change over storage:.00019; HRU: 14764 1982 10 1
Change over storage:.00004; HRU: 14774 1982 10 1
Change over storage:.00006; HRU: 14776 1982 10 1
Change over storage:.00007; HRU: 14816 1982 10 1
Change over storage:.00033; HRU: 14828 1982 10 1
Change over storage:.00035; HRU: 14932 1982 10 1
Change over storage:.00018; HRU: 14933 1982 10 1
Change over storage:.00027; HRU: 14995 1982 10 1
Change over storage:.00003; HRU: 14996 1982 10 1
Change over storage:.00001; HRU: 14997 1982 10 1
Change over storage:.00094; HRU: 15002 1982 10 1
Change over storage:.00010; HRU: 15102 1982 10 1
Change over storage:.00096; HRU: 15103 1982 10 1
Change over storage:.00022; HRU: 15106 1982 10 1
Change over storage:.00024; HRU: 15107 1982 10 1
Change over storage:.00032; HRU: 15108 1982 10 1
Change over storage:.00084; HRU: 15215 1982 10 1
Change over storage:.00089; HRU: 15216 1982 10 1
Change over storage:.00059; HRU: 15217 1982 10 1
Change over storage:.00039; HRU: 15218 1982 10 1
Change over storage:.00044; HRU: 15219 1982 10 1
Change over storage:.00004; HRU: 15285 1982 10 1
Change over storage:.00051; HRU: 15326 1982 10 1
Change over storage:.00083; HRU: 15327 1982 10 1
Change over storage:.00091; HRU: 15328 1982 10 1
Change over storage:.00041; HRU: 15329 1982 10 1
Change over storage:.00017; HRU: 15331 1982 10 1
Change over storage:.00036; HRU: 15339 1982 10 1
Change over storage:.00084; HRU: 15438 1982 10 1
Change over storage:.00055; HRU: 15439 1982 10 1
Change over storage:.00035; HRU: 15440 1982 10 1
Change over storage:.00040; HRU: 15441 1982 10 1
Change over storage:.00015; HRU: 15442 1982 10 1
Change over storage:.00010; HRU: 15444 1982 10 1
Change over storage:.00048; HRU: 15508 1982 10 1
Change over storage:.00001; HRU: 15509 1982 10 1
Change over storage:.00082; HRU: 15549 1982 10 1
Change over storage:.00097; HRU: 15550 1982 10 1
Change over storage:.00035; HRU: 15551 1982 10 1
Change over storage:.00033; HRU: 15552 1982 10 1
Change over storage:.00006; HRU: 15553 1982 10 1
Change over storage:.00004; HRU: 15554 1982 10 1
Change over storage:.00007; HRU: 15555 1982 10 1
Change over storage:.00016; HRU: 15612 1982 10 1
Change over storage:.00019; HRU: 15619 1982 10 1
Change over storage:.00026; HRU: 15620 1982 10 1
Change over storage:.00034; HRU: 15621 1982 10 1
Change over storage:.00056; HRU: 15662 1982 10 1
Change over storage:.00046; HRU: 15664 1982 10 1
Change over storage:.00019; HRU: 15667 1982 10 1
Change over storage:.00003; HRU: 15714 1982 10 1
Change over storage:.00012; HRU: 15718 1982 10 1
Change over storage:.00108; HRU: 15723 1982 10 1
Change over storage:.00068; HRU: 15724 1982 10 1
Change over storage:.00035; HRU: 15730 1982 10 1
Change over storage:.00086; HRU: 15732 1982 10 1
Change over storage:.00047; HRU: 15733 1982 10 1
Change over storage:.00034; HRU: 15773 1982 10 1
Change over storage:.00005; HRU: 15832 1982 10 1
Change over storage:.00087; HRU: 15834 1982 10 1
Change over storage:.00023; HRU: 15841 1982 10 1
Change over storage:.00015; HRU: 15842 1982 10 1
Change over storage:.00028; HRU: 15843 1982 10 1
Change over storage:.00130; HRU: 15883 1982 10 1
Change over storage:.00094; HRU: 15944 1982 10 1
Change over storage:.00095; HRU: 15945 1982 10 1
Change over storage:.00028; HRU: 15952 1982 10 1
Change over storage:.00012; HRU: 15953 1982 10 1
Change over storage:.00047; HRU: 16056 1982 10 1
Change over storage:.00012; HRU: 16057 1982 10 1
Change over storage:.00127; HRU: 16102 1982 10 1
Change over storage:.00024; HRU: 16165 1982 10 1
Change over storage:.00028; HRU: 16168 1982 10 1
Change over storage:.00041; HRU: 16180 1982 10 1
Change over storage:.00020; HRU: 16187 1982 10 1
Change over storage:.00073; HRU: 16214 1982 10 1
Change over storage:.00053; HRU: 16222 1982 10 1
Change over storage:.00042; HRU: 16278 1982 10 1
Change over storage:.00012; HRU: 16279 1982 10 1
Change over storage:.00060; HRU: 16291 1982 10 1
Change over storage:.00043; HRU: 16292 1982 10 1
Change over storage:.00018; HRU: 16326 1982 10 1
Change over storage:.00113; HRU: 16387 1982 10 1
Change over storage:.00027; HRU: 16388 1982 10 1
Change over storage:.00046; HRU: 16399 1982 10 1
Change over storage:.00045; HRU: 16402 1982 10 1
Change over storage:.00054; HRU: 16403 1982 10 1
Change over storage:.00025; HRU: 16404 1982 10 1
Change over storage:.00119; HRU: 16405 1982 10 1
Change over storage:.00208; HRU: 16406 1982 10 1
Change over storage:.00045; HRU: 16412 1982 10 1
Change over storage:.00030; HRU: 16438 1982 10 1
Change over storage:.00020; HRU: 16497 1982 10 1
Change over storage:.00073; HRU: 16509 1982 10 1
Change over storage:.00139; HRU: 16510 1982 10 1
Change over storage:.00003; HRU: 16514 1982 10 1
Change over storage:.00021; HRU: 16515 1982 10 1
Change over storage:.00115; HRU: 16517 1982 10 1
Change over storage:.00041; HRU: 16518 1982 10 1
Change over storage:.00015; HRU: 16547 1982 10 1
Change over storage:.00010; HRU: 16563 1982 10 1
Change over storage:.00002; HRU: 16608 1982 10 1
Change over storage:.00002; HRU: 16610 1982 10 1
Change over storage:.00081; HRU: 16621 1982 10 1
Change over storage:.00094; HRU: 16622 1982 10 1
Change over storage:.00051; HRU: 16627 1982 10 1
Change over storage:.00182; HRU: 16628 1982 10 1
Change over storage:.00069; HRU: 16629 1982 10 1
Change over storage:.00008; HRU: 16630 1982 10 1
Change over storage:.00102; HRU: 16636 1982 10 1
Change over storage:.00103; HRU: 16642 1982 10 1
Change over storage:.00024; HRU: 16667 1982 10 1
Change over storage:.00002; HRU: 16719 1982 10 1
Change over storage:.00046; HRU: 16733 1982 10 1
Change over storage:.00170; HRU: 16739 1982 10 1
Change over storage:.00029; HRU: 16740 1982 10 1
Change over storage:.00117; HRU: 16741 1982 10 1
Change over storage:.00005; HRU: 16742 1982 10 1
Change over storage:.00035; HRU: 16746 1982 10 1
Change over storage:.00103; HRU: 16747 1982 10 1
Change over storage:.00046; HRU: 16748 1982 10 1
Change over storage:.00055; HRU: 16774 1982 10 1
Change over storage:.00045; HRU: 16775 1982 10 1
Change over storage:.00051; HRU: 16776 1982 10 1
Change over storage:.00057; HRU: 16777 1982 10 1
Change over storage:.00030; HRU: 16782 1982 10 1
Change over storage:.00091; HRU: 16832 1982 10 1
Change over storage:.00124; HRU: 16851 1982 10 1
Change over storage:.00113; HRU: 16853 1982 10 1
Change over storage:.00053; HRU: 16854 1982 10 1
Change over storage:.00109; HRU: 16859 1982 10 1
Change over storage:.00012; HRU: 16860 1982 10 1
Change over storage:.00059; HRU: 16861 1982 10 1
Change over storage:.00088; HRU: 16886 1982 10 1
Change over storage:.00068; HRU: 16891 1982 10 1
Change over storage:.00080; HRU: 16955 1982 10 1
Change over storage:.00033; HRU: 16964 1982 10 1
Change over storage:.00147; HRU: 16965 1982 10 1
Change over storage:.00066; HRU: 16966 1982 10 1
Change over storage:.00208; HRU: 16992 1982 10 1
Change over storage:.00044; HRU: 17001 1982 10 1
Change over storage:.00121; HRU: 17002 1982 10 1
Change over storage:.00027; HRU: 17006 1982 10 1
Change over storage:.00062; HRU: 17066 1982 10 1
Change over storage:.00018; HRU: 17067 1982 10 1
Change over storage:.00084; HRU: 17076 1982 10 1
Change over storage:.00106; HRU: 17077 1982 10 1
Change over storage:.00055; HRU: 17078 1982 10 1
Change over storage:.00304; HRU: 17104 1982 10 1
Change over storage:.00101; HRU: 17111 1982 10 1
Change over storage:.00030; HRU: 17113 1982 10 1
Change over storage:.00011; HRU: 17114 1982 10 1
Change over storage:.00045; HRU: 17115 1982 10 1
Change over storage:.00004; HRU: 17116 1982 10 1
Change over storage:.00005; HRU: 17117 1982 10 1
Change over storage:.00130; HRU: 17178 1982 10 1
Change over storage:.00064; HRU: 17179 1982 10 1
Change over storage:.00014; HRU: 17186 1982 10 1
Change over storage:.00046; HRU: 17187 1982 10 1
Change over storage:.00107; HRU: 17188 1982 10 1
Change over storage:.00044; HRU: 17190 1982 10 1
Change over storage:.00074; HRU: 17216 1982 10 1
Change over storage:.00046; HRU: 17226 1982 10 1
Change over storage:.00053; HRU: 17290 1982 10 1
Change over storage:.00140; HRU: 17300 1982 10 1
Change over storage:.00091; HRU: 17302 1982 10 1
Change over storage:.00010; HRU: 17305 1982 10 1
Change over storage:.00077; HRU: 17328 1982 10 1
Change over storage:.00094; HRU: 17332 1982 10 1
Change over storage:.00014; HRU: 17401 1982 10 1
Change over storage:.00056; HRU: 17413 1982 10 1
Change over storage:.00055; HRU: 17414 1982 10 1
Change over storage:.00006; HRU: 17416 1982 10 1
Change over storage:.00008; HRU: 17417 1982 10 1
Change over storage:.00088; HRU: 17423 1982 10 1
Change over storage:.00000; HRU: 17426 1982 10 1
Change over storage:.00030; HRU: 17444 1982 10 1
Change over storage:.00031; HRU: 17450 1982 10 1
Change over storage:.00034; HRU: 17451 1982 10 1
Change over storage:.00136; HRU: 17525 1982 10 1
Change over storage:.00141; HRU: 17526 1982 10 1
Change over storage:.00182; HRU: 17527 1982 10 1
Change over storage:.00060; HRU: 17528 1982 10 1
Change over storage:.00004; HRU: 17534 1982 10 1
Change over storage:.00009; HRU: 17536 1982 10 1
Change over storage:.00003; HRU: 17539 1982 10 1
Change over storage:.00007; HRU: 17540 1982 10 1
Change over storage:.00003; HRU: 17541 1982 10 1
Change over storage:.00014; HRU: 17542 1982 10 1
Change over storage:.00058; HRU: 17556 1982 10 1
Change over storage:.00001; HRU: 17561 1982 10 1
Change over storage:.00016; HRU: 17562 1982 10 1
Change over storage:.00018; HRU: 17564 1982 10 1
Change over storage:.00001; HRU: 17566 1982 10 1
Change over storage:.00020; HRU: 17567 1982 10 1
Change over storage:.00001; HRU: 17628 1982 10 1
Change over storage:.00151; HRU: 17638 1982 10 1
Change over storage:.00084; HRU: 17639 1982 10 1
Change over storage:.00044; HRU: 17640 1982 10 1
Change over storage:.00000; HRU: 17654 1982 10 1
Change over storage:.00010; HRU: 17655 1982 10 1
Change over storage:.00113; HRU: 17666 1982 10 1
Change over storage:.00032; HRU: 17669 1982 10 1
Change over storage:.00108; HRU: 17673 1982 10 1
Change over storage:.00029; HRU: 17674 1982 10 1
Change over storage:.00017; HRU: 17675 1982 10 1
Change over storage:.00024; HRU: 17676 1982 10 1
Change over storage:.00033; HRU: 17678 1982 10 1
Change over storage:.00011; HRU: 17679 1982 10 1
Change over storage:.00108; HRU: 17687 1982 10 1
Change over storage:.00079; HRU: 17688 1982 10 1
Change over storage:.00000; HRU: 17691 1982 10 1
Change over storage:.00072; HRU: 17749 1982 10 1
Change over storage:.00081; HRU: 17750 1982 10 1
Change over storage:.00059; HRU: 17751 1982 10 1
Change over storage:.00041; HRU: 17775 1982 10 1
Change over storage:.00028; HRU: 17780 1982 10 1
Change over storage:.00182; HRU: 17785 1982 10 1
Change over storage:.00081; HRU: 17786 1982 10 1
Change over storage:.00068; HRU: 17787 1982 10 1
Change over storage:.00043; HRU: 17788 1982 10 1
Change over storage:.00008; HRU: 17789 1982 10 1
Change over storage:.00077; HRU: 17792 1982 10 1
Change over storage:.00016; HRU: 17793 1982 10 1
Change over storage:.00017; HRU: 17796 1982 10 1
Change over storage:.00005; HRU: 17797 1982 10 1
Change over storage:.00058; HRU: 17798 1982 10 1
Change over storage:.00058; HRU: 17799 1982 10 1
Change over storage:.00038; HRU: 17860 1982 10 1
Change over storage:.00071; HRU: 17861 1982 10 1
Change over storage:.00028; HRU: 17862 1982 10 1
Change over storage:.00080; HRU: 17863 1982 10 1
Change over storage:.00027; HRU: 17891 1982 10 1
Change over storage:.00007; HRU: 17892 1982 10 1
Change over storage:.00049; HRU: 17893 1982 10 1
Change over storage:.00033; HRU: 17895 1982 10 1
Change over storage:.00035; HRU: 17896 1982 10 1
Change over storage:.00034; HRU: 17897 1982 10 1
Change over storage:.00002; HRU: 17898 1982 10 1
Change over storage:.00025; HRU: 17899 1982 10 1
Change over storage:.00006; HRU: 17900 1982 10 1
Change over storage:.00018; HRU: 17904 1982 10 1
Change over storage:.00037; HRU: 17905 1982 10 1
Change over storage:.00016; HRU: 17906 1982 10 1
Change over storage:.00049; HRU: 17907 1982 10 1
Change over storage:.00029; HRU: 17910 1982 10 1
Change over storage:.00004; HRU: 17912 1982 10 1
Change over storage:.00135; HRU: 17973 1982 10 1
Change over storage:.00022; HRU: 17974 1982 10 1
Change over storage:.00019; HRU: 17975 1982 10 1
Change over storage:.00040; HRU: 17985 1982 10 1
Change over storage:.00021; HRU: 17986 1982 10 1
Change over storage:.00023; HRU: 17994 1982 10 1
Change over storage:.00003; HRU: 18006 1982 10 1
Change over storage:.00086; HRU: 18008 1982 10 1
Change over storage:.00012; HRU: 18009 1982 10 1
Change over storage:.00039; HRU: 18010 1982 10 1
Change over storage:.00086; HRU: 18012 1982 10 1
Change over storage:.00036; HRU: 18013 1982 10 1
Change over storage:.00004; HRU: 18016 1982 10 1
Change over storage:.00069; HRU: 18017 1982 10 1
Change over storage:.00022; HRU: 18018 1982 10 1
Change over storage:.00010; HRU: 18019 1982 10 1
Change over storage:.00027; HRU: 18021 1982 10 1
Change over storage:.00031; HRU: 18022 1982 10 1
Change over storage:.00112; HRU: 18023 1982 10 1
Change over storage:.00150; HRU: 18024 1982 10 1
Change over storage:.00000; HRU: 18026 1982 10 1
Change over storage:.00054; HRU: 18086 1982 10 1
Change over storage:.00072; HRU: 18087 1982 10 1
Change over storage:.00018; HRU: 18098 1982 10 1
Change over storage:.00069; HRU: 18106 1982 10 1
Change over storage:.00047; HRU: 18110 1982 10 1
Change over storage:.00025; HRU: 18120 1982 10 1
Change over storage:.00028; HRU: 18125 1982 10 1
Change over storage:.00003; HRU: 18128 1982 10 1
Change over storage:.00141; HRU: 18129 1982 10 1
Change over storage:.00044; HRU: 18131 1982 10 1
Change over storage:.00008; HRU: 18132 1982 10 1
Change over storage:.00014; HRU: 18133 1982 10 1
Change over storage:.00074; HRU: 18134 1982 10 1
Change over storage:.00059; HRU: 18135 1982 10 1
Change over storage:.00115; HRU: 18137 1982 10 1
Change over storage:.00005; HRU: 18187 1982 10 1
Change over storage:.00039; HRU: 18210 1982 10 1
Change over storage:.00053; HRU: 18217 1982 10 1
Change over storage:.00041; HRU: 18218 1982 10 1
Change over storage:.00025; HRU: 18219 1982 10 1
Change over storage:.00072; HRU: 18222 1982 10 1
Change over storage:.00060; HRU: 18230 1982 10 1
Change over storage:.00053; HRU: 18231 1982 10 1
Change over storage:.00122; HRU: 18241 1982 10 1
Change over storage:.00004; HRU: 18244 1982 10 1
Change over storage:.00001; HRU: 18245 1982 10 1
Change over storage:.00015; HRU: 18246 1982 10 1
Change over storage:.00022; HRU: 18247 1982 10 1
Change over storage:.00002; HRU: 18249 1982 10 1
Change over storage:.00006; HRU: 18318 1982 10 1
Change over storage:.00027; HRU: 18321 1982 10 1
Change over storage:.00005; HRU: 18322 1982 10 1
Change over storage:.00076; HRU: 18329 1982 10 1
Change over storage:.00112; HRU: 18343 1982 10 1
Change over storage:.00085; HRU: 18344 1982 10 1
Change over storage:.00014; HRU: 18357 1982 10 1
Change over storage:.00000; HRU: 18358 1982 10 1
Change over storage:.00001; HRU: 18360 1982 10 1
Change over storage:.00008; HRU: 18406 1982 10 1
Change over storage:.00041; HRU: 18442 1982 10 1
Change over storage:.00050; HRU: 18451 1982 10 1
Change over storage:.00029; HRU: 18454 1982 10 1
Change over storage:.00016; HRU: 18470 1982 10 1
Change over storage:.00003; HRU: 18471 1982 10 1
Change over storage:.00012; HRU: 18472 1982 10 1
Change over storage:.00002; HRU: 18473 1982 10 1
Change over storage:.00132; HRU: 18548 1982 10 1
Change over storage:.00008; HRU: 18553 1982 10 1
Change over storage:.00017; HRU: 18567 1982 10 1
Change over storage:.00027; HRU: 18582 1982 10 1
Change over storage:.00028; HRU: 18629 1982 10 1
Change over storage:.00027; HRU: 18631 1982 10 1
Change over storage:.00006; HRU: 18642 1982 10 1
Change over storage:.00016; HRU: 18647 1982 10 1
Change over storage:.00067; HRU: 18657 1982 10 1
Change over storage:.00005; HRU: 18665 1982 10 1
Change over storage:.00036; HRU: 18666 1982 10 1
Change over storage:.00042; HRU: 18674 1982 10 1
Change over storage:.00064; HRU: 18675 1982 10 1
Change over storage:.00023; HRU: 18676 1982 10 1
Change over storage:.00008; HRU: 18695 1982 10 1
Change over storage:.00059; HRU: 18754 1982 10 1
Change over storage:.00011; HRU: 18755 1982 10 1
Change over storage:.00024; HRU: 18758 1982 10 1
Change over storage:.00029; HRU: 18768 1982 10 1
Change over storage:.00026; HRU: 18783 1982 10 1
Change over storage:.00039; HRU: 18786 1982 10 1
Change over storage:.00031; HRU: 18787 1982 10 1
Change over storage:.00041; HRU: 18788 1982 10 1
Change over storage:.00015; HRU: 18789 1982 10 1
Change over storage:.00040; HRU: 18796 1982 10 1
Change over storage:.00026; HRU: 18798 1982 10 1
Change over storage:.00006; HRU: 18854 1982 10 1
Change over storage:.00045; HRU: 18857 1982 10 1
Change over storage:.00090; HRU: 18858 1982 10 1
Change over storage:.00001; HRU: 18859 1982 10 1
Change over storage:.00015; HRU: 18864 1982 10 1
Change over storage:.00108; HRU: 18865 1982 10 1
Change over storage:.00178; HRU: 18866 1982 10 1
Change over storage:.00167; HRU: 18868 1982 10 1
Change over storage:.00060; HRU: 18869 1982 10 1
Change over storage:.00010; HRU: 18875 1982 10 1
Change over storage:.00001; HRU: 18876 1982 10 1
Change over storage:.00047; HRU: 18877 1982 10 1
Change over storage:.00064; HRU: 18878 1982 10 1
Change over storage:.00049; HRU: 18879 1982 10 1
Change over storage:.00039; HRU: 18880 1982 10 1
Change over storage:.00095; HRU: 18889 1982 10 1
Change over storage:.00023; HRU: 18891 1982 10 1
Change over storage:.00012; HRU: 18899 1982 10 1
Change over storage:.00076; HRU: 18902 1982 10 1
Change over storage:.00031; HRU: 18903 1982 10 1
Change over storage:.00030; HRU: 18904 1982 10 1
Change over storage:.00026; HRU: 18905 1982 10 1
Change over storage:.00038; HRU: 18906 1982 10 1
Change over storage:.00050; HRU: 18968 1982 10 1
Change over storage:.00189; HRU: 18969 1982 10 1
Change over storage:.00125; HRU: 18971 1982 10 1
Change over storage:.00025; HRU: 18976 1982 10 1
Change over storage:.00094; HRU: 18977 1982 10 1
Change over storage:.00134; HRU: 18978 1982 10 1
Change over storage:.00086; HRU: 18981 1982 10 1
Change over storage:.00109; HRU: 18988 1982 10 1
Change over storage:.00003; HRU: 18990 1982 10 1
Change over storage:.00018; HRU: 18991 1982 10 1
Change over storage:.00053; HRU: 18998 1982 10 1
Change over storage:.00029; HRU: 19001 1982 10 1
Change over storage:.00164; HRU: 19002 1982 10 1
Change over storage:.00034; HRU: 19010 1982 10 1
Change over storage:.00066; HRU: 19011 1982 10 1
Change over storage:.00020; HRU: 19015 1982 10 1
Change over storage:.00006; HRU: 19017 1982 10 1
Change over storage:.00248; HRU: 19084 1982 10 1
Change over storage:.00101; HRU: 19085 1982 10 1
Change over storage:.00095; HRU: 19086 1982 10 1
Change over storage:.00162; HRU: 19087 1982 10 1
Change over storage:.00248; HRU: 19088 1982 10 1
Change over storage:.00221; HRU: 19089 1982 10 1
Change over storage:.00126; HRU: 19093 1982 10 1
Change over storage:.00081; HRU: 19099 1982 10 1
Change over storage:.00017; HRU: 19100 1982 10 1
Change over storage:.00034; HRU: 19102 1982 10 1
Change over storage:.00068; HRU: 19103 1982 10 1
Change over storage:.00043; HRU: 19110 1982 10 1
Change over storage:.00131; HRU: 19112 1982 10 1
Change over storage:.00171; HRU: 19113 1982 10 1
Change over storage:.00028; HRU: 19119 1982 10 1
Change over storage:.00072; HRU: 19122 1982 10 1
Change over storage:.00036; HRU: 19124 1982 10 1
Change over storage:.00011; HRU: 19126 1982 10 1
Change over storage:.00025; HRU: 19127 1982 10 1
Change over storage:.00014; HRU: 19128 1982 10 1
Change over storage:.00100; HRU: 19197 1982 10 1
Change over storage:.00046; HRU: 19201 1982 10 1
Change over storage:.00006; HRU: 19203 1982 10 1
Change over storage:.00127; HRU: 19205 1982 10 1
Change over storage:.00037; HRU: 19211 1982 10 1
Change over storage:.00004; HRU: 19212 1982 10 1
Change over storage:.00043; HRU: 19214 1982 10 1
Change over storage:.00059; HRU: 19215 1982 10 1
Change over storage:.00029; HRU: 19231 1982 10 1
Change over storage:.00079; HRU: 19232 1982 10 1
Change over storage:.00100; HRU: 19233 1982 10 1
Change over storage:.00073; HRU: 19237 1982 10 1
Change over storage:.00035; HRU: 19238 1982 10 1
Change over storage:.00078; HRU: 19240 1982 10 1
Change over storage:.00005; HRU: 19241 1982 10 1
Change over storage:.00009; HRU: 19314 1982 10 1
Change over storage:.00051; HRU: 19322 1982 10 1
Change over storage:.00001; HRU: 19323 1982 10 1
Change over storage:.00045; HRU: 19326 1982 10 1
Change over storage:.00081; HRU: 19327 1982 10 1
Change over storage:.00020; HRU: 19343 1982 10 1
Change over storage:.00064; HRU: 19344 1982 10 1
Change over storage:.00070; HRU: 19345 1982 10 1
Change over storage:.00013; HRU: 19349 1982 10 1
Change over storage:.00066; HRU: 19350 1982 10 1
Change over storage:.00018; HRU: 19351 1982 10 1
Change over storage:.00077; HRU: 19352 1982 10 1
Change over storage:.00087; HRU: 19353 1982 10 1
Change over storage:.00018; HRU: 19354 1982 10 1
Change over storage:.00029; HRU: 19426 1982 10 1
Change over storage:.00036; HRU: 19433 1982 10 1
Change over storage:.00051; HRU: 19437 1982 10 1
Change over storage:.00068; HRU: 19438 1982 10 1
Change over storage:.00025; HRU: 19440 1982 10 1
Change over storage:.00062; HRU: 19446 1982 10 1
Change over storage:.00127; HRU: 19452 1982 10 1
Change over storage:.00060; HRU: 19457 1982 10 1
Change over storage:.00038; HRU: 19463 1982 10 1
Change over storage:.00079; HRU: 19464 1982 10 1
Change over storage:.00028; HRU: 19465 1982 10 1
Change over storage:.00002; HRU: 19466 1982 10 1
Change over storage:.00002; HRU: 19547 1982 10 1
Change over storage:.00018; HRU: 19548 1982 10 1
Change over storage:.00017; HRU: 19549 1982 10 1
Change over storage:.00067; HRU: 19550 1982 10 1
Change over storage:.00030; HRU: 19551 1982 10 1
Change over storage:.00040; HRU: 19552 1982 10 1
Change over storage:.00050; HRU: 19568 1982 10 1
Change over storage:.00052; HRU: 19569 1982 10 1
Change over storage:.00058; HRU: 19575 1982 10 1
Change over storage:.00030; HRU: 19577 1982 10 1
Change over storage:.00018; HRU: 19578 1982 10 1
Change over storage:.00016; HRU: 19579 1982 10 1
Change over storage:.00018; HRU: 19580 1982 10 1
Change over storage:.00008; HRU: 19582 1982 10 1
Change over storage:.00012; HRU: 19649 1982 10 1
Change over storage:.00075; HRU: 19674 1982 10 1
Change over storage:.00164; HRU: 19677 1982 10 1
Change over storage:.00157; HRU: 19678 1982 10 1
Change over storage:.00027; HRU: 19679 1982 10 1
Change over storage:.00037; HRU: 19680 1982 10 1
Change over storage:.00011; HRU: 19689 1982 10 1
Change over storage:.00040; HRU: 19690 1982 10 1
Change over storage:.00004; HRU: 19691 1982 10 1
Change over storage:.00006; HRU: 19692 1982 10 1
Change over storage:.00016; HRU: 19693 1982 10 1
Change over storage:.00018; HRU: 19694 1982 10 1
Change over storage:.00001; HRU: 19757 1982 10 1
Change over storage:.00112; HRU: 19777 1982 10 1
Change over storage:.00182; HRU: 19790 1982 10 1
Change over storage:.00065; HRU: 19792 1982 10 1
Change over storage:.00034; HRU: 19793 1982 10 1
Change over storage:.00042; HRU: 19802 1982 10 1
Change over storage:.00007; HRU: 19804 1982 10 1
Change over storage:.00000; HRU: 19808 1982 10 1
Change over storage:.00088; HRU: 19889 1982 10 1
Change over storage:.00103; HRU: 19891 1982 10 1
Change over storage:.00048; HRU: 19905 1982 10 1
Change over storage:.00061; HRU: 19906 1982 10 1
Change over storage:.00023; HRU: 19914 1982 10 1
Change over storage:.00005; HRU: 19915 1982 10 1
Change over storage:.00010; HRU: 19917 1982 10 1
Change over storage:.00039; HRU: 20000 1982 10 1
Change over storage:.00035; HRU: 20004 1982 10 1
Change over storage:.00061; HRU: 20017 1982 10 1
Change over storage:.00033; HRU: 20019 1982 10 1
[...]
Change over storage:.00158; HRU: 21478 1983 10 1
Change over storage:.00020; HRU: 22146 1983 10 1
Change over storage:.00005; HRU: 22257 1983 10 1
Change over storage:.00075; HRU: 22478 1983 10 1
Change over storage:.00073; HRU: 24149 1983 10 1
Change over storage:.00081; HRU: 24150 1983 10 1
Change over storage:.00048; HRU: 2672 1983 10 1
Change over storage:.00141; HRU: 2783 1983 10 1
Change over storage:.00010; HRU: 4243 1983 10 1
Change over storage:.00141; HRU: 4465 1983 10 1
Change over storage:.00136; HRU: 6153 1983 10 1
Change over storage:.00113; HRU: 6265 1983 10 1
Change over storage:.00023; HRU: 7039 1983 10 1
Change over storage:.00163; HRU: 7150 1983 10 1
Change over storage:.00143; HRU: 7262 1983 10 1
Change over storage:.00030; HRU: 8942 1983 10 1
Change over storage:.00050; HRU: 8943 1983 10 1
Change over storage:.00103; HRU: 9053 1983 10 1
Change over storage:.00120; HRU: 9165 1983 10 1
Change over storage:.00180; HRU: 9536 1983 10 1
Change over storage:.00020; HRU: 10186 1983 10 1
Change over storage:.00120; HRU: 10297 1983 10 1
Change over storage:.00020; HRU: 10408 1983 10 1
Change over storage:.00103; HRU: 10518 1983 10 1
Change over storage:.00054; HRU: 10740 1983 10 1
Change over storage:.00133; HRU: 11075 1983 10 1
Change over storage:.00270; HRU: 12580 1983 10 1
Change over storage:.00225; HRU: 12691 1983 10 1
Change over storage:.00378; HRU: 12802 1983 10 1
Change over storage:.00144; HRU: 13426 1983 10 1
Change over storage:.00030; HRU: 13469 1983 10 1
Change over storage:.00039; HRU: 13537 1983 10 1
Change over storage:.00020; HRU: 13580 1983 10 1
Change over storage:.00108; HRU: 13703 1983 10 1
Change over storage:.00072; HRU: 13704 1983 10 1
Change over storage:.00147; HRU: 13705 1983 10 1
Change over storage:.00010; HRU: 13706 1983 10 1
Change over storage:.00138; HRU: 13707 1983 10 1
Change over storage:.00020; HRU: 13760 1983 10 1
Change over storage:.00115; HRU: 13872 1983 10 1
Change over storage:.00185; HRU: 13984 1983 10 1
Change over storage:.00215; HRU: 14096 1983 10 1
Change over storage:.00230; HRU: 14208 1983 10 1
Change over storage:.00335; HRU: 15001 1983 10 1
Change over storage:.00025; HRU: 15221 1983 10 1
Change over storage:.00277; HRU: 15332 1983 10 1
Change over storage:.00069; HRU: 15665 1983 10 1
Change over storage:.00015; HRU: 16000 1983 10 1
Change over storage:.00172; HRU: 16111 1983 10 1
Change over storage:.00332; HRU: 16297 1983 10 1
Change over storage:.00780; HRU: 16298 1983 10 1
Change over storage:.00062; HRU: 16407 1983 10 1
Change over storage:.00080; HRU: 16735 1983 10 1
Change over storage:.00054; HRU: 16736 1983 10 1
Change over storage:.00015; HRU: 16737 1983 10 1
Change over storage:.00234; HRU: 16787 1983 10 1
Change over storage:.00094; HRU: 16788 1983 10 1
Change over storage:.00050; HRU: 16846 1983 10 1
Change over storage:.00244; HRU: 16863 1983 10 1
Change over storage:.00020; HRU: 16898 1983 10 1
Change over storage:.00075; HRU: 16957 1983 10 1
Change over storage:.00051; HRU: 16974 1983 10 1
Change over storage:.00080; HRU: 16981 1983 10 1
Change over storage:.00080; HRU: 17010 1983 10 1
Change over storage:.00085; HRU: 17068 1983 10 1
Change over storage:.00059; HRU: 17122 1983 10 1
Change over storage:.00015; HRU: 17234 1983 10 1
Change over storage:.00070; HRU: 18463 1983 10 1
Change over storage:.00005; HRU: 18698 1983 10 1
Change over storage:.00054; HRU: 18759 1983 10 1
Change over storage:.00103; HRU: 18801 1983 10 1
Change over storage:.00142; HRU: 18870 1983 10 1
Change over storage:.00039; HRU: 18912 1983 10 1
Change over storage:.00149; HRU: 18919 1983 10 1
Change over storage:.00082; HRU: 19133 1983 10 1
Change over storage:.00150; HRU: 19204 1983 10 1
Change over storage:.00039; HRU: 19315 1983 10 1
Change over storage:.00005; HRU: 19574 1983 10 1
Change over storage:.00015; HRU: 19907 1983 10 1
Change over storage:.00030; HRU: 20678 1983 10 1
Change over storage:.00216; HRU: 20679 1983 10 1
Change over storage:.00082; HRU: 20798 1983 10 1
Change over storage:.00045; HRU: 20909 1983 10 1
Change over storage:.00082; HRU: 21132 1983 10 1
Change over storage:.00010; HRU: 22256 1983 10 1
Change over storage:.00015; HRU: 22367 1983 10 1
Change over storage:.00108; HRU: 24037 1983 10 1
Change over storage:.00009; HRU: 6152 1983 10 1
Change over storage:.00084; HRU: 6264 1983 10 1
Change over storage:.00186; HRU: 6376 1983 10 1
Change over storage:.00127; HRU: 6927 1983 10 1
Change over storage:.00005; HRU: 7038 1983 10 1
Change over storage:.00176; HRU: 7261 1983 10 1
Change over storage:.00055; HRU: 8941 1983 10 1
Change over storage:.00065; HRU: 9164 1983 10 1
Change over storage:.00175; HRU: 9276 1983 10 1
Change over storage:.00072; HRU: 9277 1983 10 1
Change over storage:.00329; HRU: 9388 1983 10 1
Change over storage:.00070; HRU: 9389 1983 10 1
Change over storage:.00064; HRU: 9500 1983 10 1
Change over storage:.00058; HRU: 10205 1983 10 1
Change over storage:.00015; HRU: 10406 1983 10 1
Change over storage:.00141; HRU: 10517 1983 10 1
Change over storage:.00378; HRU: 10628 1983 10 1
Change over storage:.00100; HRU: 10739 1983 10 1
Change over storage:.00055; HRU: 10850 1983 10 1
Change over storage:.00015; HRU: 10963 1983 10 1
Change over storage:.00143; HRU: 11074 1983 10 1
Change over storage:.00045; HRU: 13357 1983 10 1
Change over storage:.00170; HRU: 13425 1983 10 1
Change over storage:.00169; HRU: 13468 1983 10 1
Change over storage:.00070; HRU: 13648 1983 10 1
Change over storage:.00015; HRU: 13871 1983 10 1
Change over storage:.00161; HRU: 13983 1983 10 1
Change over storage:.00088; HRU: 14095 1983 10 1
Change over storage:.00010; HRU: 14207 1983 10 1
Change over storage:.00176; HRU: 14889 1983 10 1
Change over storage:.00156; HRU: 15000 1983 10 1
Change over storage:.00254; HRU: 15109 1983 10 1
Change over storage:.00167; HRU: 15220 1983 10 1
Change over storage:.00020; HRU: 15888 1983 10 1
Change over storage:.00231; HRU: 15999 1983 10 1
Change over storage:.00293; HRU: 16106 1983 10 1
Change over storage:.00435; HRU: 16185 1983 10 1
Change over storage:.00340; HRU: 16217 1983 10 1
Change over storage:.00878; HRU: 16295 1983 10 1
Change over storage:.00691; HRU: 16296 1983 10 1
Change over storage:.00480; HRU: 16439 1983 10 1
Change over storage:.00125; HRU: 16624 1983 10 1
Change over storage:.00044; HRU: 16675 1983 10 1
Change over storage:.00240; HRU: 16734 1983 10 1
Change over storage:.00091; HRU: 16751 1983 10 1
Change over storage:.00130; HRU: 16752 1983 10 1
Change over storage:.00230; HRU: 16753 1983 10 1
Change over storage:.00160; HRU: 16754 1983 10 1
Change over storage:.00030; HRU: 16755 1983 10 1
Change over storage:.00483; HRU: 16760 1983 10 1
Change over storage:.00034; HRU: 16786 1983 10 1
Change over storage:.00078; HRU: 16845 1983 10 1
Change over storage:.00110; HRU: 16862 1983 10 1
Change over storage:.00005; HRU: 16867 1983 10 1
Change over storage:.00147; HRU: 16868 1983 10 1
Change over storage:.00199; HRU: 16869 1983 10 1
Change over storage:.00249; HRU: 16956 1983 10 1
Change over storage:.00099; HRU: 17009 1983 10 1
Change over storage:.00134; HRU: 18351 1983 10 1
Change over storage:.00024; HRU: 18352 1983 10 1
Change over storage:.00010; HRU: 18353 1983 10 1
Change over storage:.00092; HRU: 18462 1983 10 1
Change over storage:.00045; HRU: 18574 1983 10 1
Change over storage:.00121; HRU: 18800 1983 10 1
Change over storage:.00046; HRU: 19132 1983 10 1
Change over storage:.00148; HRU: 19244 1983 10 1
Change over storage:.00010; HRU: 19245 1983 10 1
Change over storage:.00115; HRU: 19356 1983 10 1
Change over storage:.00189; HRU: 19357 1983 10 1
Change over storage:.00005; HRU: 19573 1983 10 1
Change over storage:.00059; HRU: 19684 1983 10 1
Change over storage:.00040; HRU: 20566 1983 10 1
Change over storage:.00391; HRU: 20567 1983 10 1
Change over storage:.00086; HRU: 20686 1983 10 1
Change over storage:.00095; HRU: 21242 1983 10 1
Change over storage:.00060; HRU: 21354 1983 10 1
Change over storage:.00076; HRU: 21466 1983 10 1
Change over storage:.00094; HRU: 22366 1983 10 1
Change over storage:.00124; HRU: 6151 1983 10 1
Change over storage:.00231; HRU: 6263 1983 10 1
Change over storage:.00055; HRU: 6815 1983 10 1
Change over storage:.00133; HRU: 6926 1983 10 1
Change over storage:.00154; HRU: 7037 1983 10 1
Change over storage:.00085; HRU: 7149 1983 10 1
Change over storage:.00055; HRU: 8940 1983 10 1
Change over storage:.00248; HRU: 9052 1983 10 1
Change over storage:.00210; HRU: 9275 1983 10 1
Change over storage:.00263; HRU: 9387 1983 10 1
Change over storage:.00160; HRU: 9499 1983 10 1
Change over storage:.00118; HRU: 9982 1983 10 1
Change over storage:.00089; HRU: 10093 1983 10 1
Change over storage:.00010; HRU: 13759 1983 10 1
Change over storage:.00106; HRU: 13982 1983 10 1
Change over storage:.00202; HRU: 14094 1983 10 1
Change over storage:.00096; HRU: 14206 1983 10 1
Change over storage:.00020; HRU: 14318 1983 10 1
Change over storage:.00235; HRU: 14888 1983 10 1
Change over storage:.00122; HRU: 14999 1983 10 1
Change over storage:.00015; HRU: 15776 1983 10 1
Change over storage:.00189; HRU: 15887 1983 10 1
Change over storage:.00740; HRU: 16184 1983 10 1
Change over storage:.00015; HRU: 16512 1983 10 1
Change over storage:.00078; HRU: 16623 1983 10 1
Change over storage:.00149; HRU: 16641 1983 10 1
Change over storage:.00260; HRU: 16643 1983 10 1
Change over storage:.00435; HRU: 16648 1983 10 1
Change over storage:.00235; HRU: 16649 1983 10 1
Change over storage:.00064; HRU: 16674 1983 10 1
Change over storage:.00181; HRU: 16750 1983 10 1
Change over storage:.00378; HRU: 16756 1983 10 1
Change over storage:.00356; HRU: 16757 1983 10 1
Change over storage:.00614; HRU: 16758 1983 10 1
Change over storage:.00555; HRU: 16759 1983 10 1
Change over storage:.00393; HRU: 16880 1983 10 1
Change over storage:.00056; HRU: 17008 1983 10 1
Change over storage:.00630; HRU: 17102 1983 10 1
Change over storage:.00665; HRU: 17103 1983 10 1
Change over storage:.00086; HRU: 17120 1983 10 1
Change over storage:.00130; HRU: 17121 1983 10 1
Change over storage:.00146; HRU: 17232 1983 10 1
Change over storage:.00050; HRU: 18239 1983 10 1
Change over storage:.00020; HRU: 18350 1983 10 1
Change over storage:.00059; HRU: 18573 1983 10 1
Change over storage:.00030; HRU: 19243 1983 10 1
Change over storage:.00033; HRU: 19355 1983 10 1
Change over storage:.00211; HRU: 19572 1983 10 1
Change over storage:.00122; HRU: 19794 1983 10 1
Change over storage:.00437; HRU: 20454 1983 10 1
Change over storage:.00010; HRU: 20463 1983 10 1
Change over storage:.00015; HRU: 20574 1983 10 1
Change over storage:.00015; HRU: 21130 1983 10 1
Change over storage:.00041; HRU: 21241 1983 10 1
Change over storage:.00306; HRU: 21353 1983 10 1
Change over storage:.00050; HRU: 22254 1983 10 1
Change over storage:.00085; HRU: 22365 1983 10 1
Change over storage:.00094; HRU: 6925 1983 10 1
Change over storage:.00050; HRU: 8939 1983 10 1
Change over storage:.00170; HRU: 9051 1983 10 1
Change over storage:.00461; HRU: 9386 1983 10 1
Change over storage:.00101; HRU: 9870 1983 10 1
Change over storage:.00129; HRU: 9981 1983 10 1
Change over storage:.00005; HRU: 13647 1983 10 1
Change over storage:.00220; HRU: 13758 1983 10 1
Change over storage:.00212; HRU: 13870 1983 10 1
Change over storage:.00344; HRU: 13981 1983 10 1
Change over storage:.00099; HRU: 14093 1983 10 1
Change over storage:.00132; HRU: 14205 1983 10 1
Change over storage:.00282; HRU: 14317 1983 10 1
Change over storage:.00189; HRU: 14429 1983 10 1
Change over storage:.00251; HRU: 14887 1983 10 1
Change over storage:.00024; HRU: 14998 1983 10 1
Change over storage:.00197; HRU: 15775 1983 10 1
Change over storage:.00168; HRU: 15886 1983 10 1
Change over storage:.00096; HRU: 16511 1983 10 1
Change over storage:.00040; HRU: 16529 1983 10 1
Change over storage:.00197; HRU: 16531 1983 10 1
Change over storage:.00256; HRU: 16537 1983 10 1
Change over storage:.00228; HRU: 16638 1983 10 1
Change over storage:.00653; HRU: 16644 1983 10 1
Change over storage:.00615; HRU: 16645 1983 10 1
Change over storage:.00582; HRU: 16647 1983 10 1
Change over storage:.00140; HRU: 16749 1983 10 1
Change over storage:.00020; HRU: 16785 1983 10 1
Change over storage:.00030; HRU: 16896 1983 10 1
Change over storage:.00230; HRU: 16990 1983 10 1
Change over storage:.00350; HRU: 16991 1983 10 1
Change over storage:.00040; HRU: 17119 1983 10 1
Change over storage:.00069; HRU: 17231 1983 10 1
Change over storage:.00063; HRU: 17343 1983 10 1
Change over storage:.00010; HRU: 18349 1983 10 1
Change over storage:.00086; HRU: 19460 1983 10 1
Change over storage:.00010; HRU: 19461 1983 10 1
Change over storage:.00062; HRU: 19571 1983 10 1
Change over storage:.00166; HRU: 19683 1983 10 1
Change over storage:.00117; HRU: 20351 1983 10 1
Change over storage:.00049; HRU: 20352 1983 10 1
Change over storage:.00015; HRU: 20573 1983 10 1
Change over storage:.00105; HRU: 8716 1983 10 1
Change over storage:.00048; HRU: 8827 1983 10 1
Change over storage:.00254; HRU: 9647 1983 10 1
Change over storage:.00172; HRU: 9758 1983 10 1
Change over storage:.00188; HRU: 14316 1983 10 1
Change over storage:.00035; HRU: 14428 1983 10 1
Change over storage:.00143; HRU: 14540 1983 10 1
Change over storage:.00246; HRU: 15663 1983 10 1
Change over storage:.00265; HRU: 15774 1983 10 1
Change over storage:.00305; HRU: 15885 1983 10 1
Change over storage:.00211; HRU: 16526 1983 10 1
Change over storage:.00495; HRU: 16532 1983 10 1
Change over storage:.00240; HRU: 16533 1983 10 1
Change over storage:.00276; HRU: 16535 1983 10 1
Change over storage:.00370; HRU: 16637 1983 10 1
Change over storage:.00538; HRU: 16646 1983 10 1
Change over storage:.00340; HRU: 16876 1983 10 1
Change over storage:.00571; HRU: 16877 1983 10 1
Change over storage:.00172; HRU: 16878 1983 10 1
Change over storage:.00054; HRU: 17007 1983 10 1
Change over storage:.00056; HRU: 17118 1983 10 1
Change over storage:.00074; HRU: 17230 1983 10 1
Change over storage:.00179; HRU: 17342 1983 10 1
Change over storage:.00108; HRU: 17454 1983 10 1
Change over storage:.00005; HRU: 18126 1983 10 1
Change over storage:.00069; HRU: 19130 1983 10 1
Change over storage:.00062; HRU: 19459 1983 10 1
Change over storage:.00055; HRU: 19682 1983 10 1
Change over storage:.00221; HRU: 20240 1983 10 1
Change over storage:.00266; HRU: 14203 1983 10 1
Change over storage:.00097; HRU: 14315 1983 10 1
Change over storage:.00390; HRU: 14427 1983 10 1
Change over storage:.00451; HRU: 14539 1983 10 1
Change over storage:.00276; HRU: 16414 1983 10 1
Change over storage:.00106; HRU: 16415 1983 10 1
Change over storage:.00095; HRU: 16416 1983 10 1
Change over storage:.00320; HRU: 16417 1983 10 1
Change over storage:.00422; HRU: 16418 1983 10 1
Change over storage:.00167; HRU: 16419 1983 10 1
Change over storage:.00040; HRU: 16420 1983 10 1
Change over storage:.00069; HRU: 16421 1983 10 1
Change over storage:.00244; HRU: 16423 1983 10 1
Change over storage:.00127; HRU: 16525 1983 10 1
Change over storage:.00279; HRU: 16534 1983 10 1
Change over storage:.00735; HRU: 16654 1983 10 1
Change over storage:.00493; HRU: 16762 1983 10 1
Change over storage:.00556; HRU: 16765 1983 10 1
Change over storage:.00070; HRU: 17229 1983 10 1
Change over storage:.00171; HRU: 17341 1983 10 1
Change over storage:.00262; HRU: 17453 1983 10 1
Change over storage:.00069; HRU: 17565 1983 10 1
Change over storage:.00106; HRU: 17903 1983 10 1
Change over storage:.00040; HRU: 19018 1983 10 1
Change over storage:.00141; HRU: 19129 1983 10 1
Change over storage:.00030; HRU: 19347 1983 10 1
Change over storage:.00141; HRU: 19570 1983 10 1
Change over storage:.00005; HRU: 19681 1983 10 1
Change over storage:.00025; HRU: 20128 1983 10 1
Change over storage:.00500; HRU: 14426 1983 10 1
Change over storage:.00292; HRU: 15657 1983 10 1
Change over storage:.00396; HRU: 16302 1983 10 1
Change over storage:.00312; HRU: 16303 1983 10 1
Change over storage:.00310; HRU: 16304 1983 10 1
Change over storage:.00725; HRU: 16305 1983 10 1
Change over storage:.00460; HRU: 16306 1983 10 1
Change over storage:.00099; HRU: 16307 1983 10 1
Change over storage:.00176; HRU: 16308 1983 10 1
Change over storage:.00464; HRU: 16309 1983 10 1
Change over storage:.00160; HRU: 16413 1983 10 1
Change over storage:.00260; HRU: 16422 1983 10 1
Change over storage:.00750; HRU: 16431 1983 10 1
Change over storage:.00854; HRU: 16542 1983 10 1
Change over storage:.00515; HRU: 16763 1983 10 1
Change over storage:.00513; HRU: 16764 1983 10 1
Change over storage:.00077; HRU: 17228 1983 10 1
Change over storage:.00142; HRU: 17340 1983 10 1
Change over storage:.00225; HRU: 17452 1983 10 1
Change over storage:.00078; HRU: 17791 1983 10 1
Change over storage:.00260; HRU: 17902 1983 10 1
Change over storage:.00015; HRU: 19235 1983 10 1
Change over storage:.00015; HRU: 19346 1983 10 1
Change over storage:.00242; HRU: 16190 1983 10 1
Change over storage:.00177; HRU: 16191 1983 10 1
Change over storage:.00286; HRU: 16301 1983 10 1
Change over storage:.00300; HRU: 16310 1983 10 1
Change over storage:.00725; HRU: 16541 1983 10 1
Change over storage:.00566; HRU: 16651 1983 10 1
Change over storage:.00627; HRU: 16652 1983 10 1
Change over storage:.00020; HRU: 17227 1983 10 1
Change over storage:.00069; HRU: 17339 1983 10 1
Change over storage:.00020; HRU: 17790 1983 10 1
Change over storage:.00229; HRU: 17901 1983 10 1
Change over storage:.00108; HRU: 18234 1983 10 1
Change over storage:.00094; HRU: 19234 1983 10 1
Change over storage:.00367; HRU: 16189 1983 10 1
Change over storage:.00755; HRU: 16300 1983 10 1
Change over storage:.00244; HRU: 16650 1983 10 1
Change over storage:.00238; HRU: 18011 1983 10 1
Change over storage:.00040; HRU: 18233 1983 10 1
Change over storage:.00380; HRU: 16538 1983 10 1
Change over storage:.00035; HRU: 18121 1983 10 1
Date: 1983/10/01; Stress: 1; Step: 1096; Simulation step: 1096
                  MF iterations: 11; SZ iterations: 11

Date: 1983/11/01; Stress: 1; Step: 1127; Simulation step: 1127
                  MF iterations: 17; SZ iterations: 17

Date: 1983/12/01; Stress: 1; Step: 1157; Simulation step: 1157
                  MF iterations: 15; SZ iterations: 15

Date: 1984/01/01; Stress: 1; Step: 1188; Simulation step: 1188
                  MF iterations: 13; SZ iterations: 13


 Run end date and time (yyyy/mm/dd hh:mm:ss): 2022/12/20 12:21:42
 Elapsed run time: 25 Minutes, 5.721 Seconds

 Number of time steps:   1217;  Number of non-convergence:   0
 MF iterations:         22431;  SZ iterations:           22474
 Average MF iterations: 18.43;  Average SZ iterations:   18.47
 Maximum MF iterations:   141;  Maximum SZ iterations:     141

MF iteration distribution:      0   18   83  107   62   41   29   43   46   45
                               32   45   47   48   29   36   23   15   32   21
                               23   20   22    8   18   26    9   16   20   11
                               21   13   14    8   20    6   17    4   12    7
                               14   10    6    7    2   11    5    7    7    3
                                3    8    5    5    3    0    1    1    1    1
                                1    2    2    1    1    1    0    0    2    2
                                0    1    0    0    0    1    1    0    0    5

SZ computation distribution:    0   15   86  107   62   38   31   43   46   46
                               32   40   49   46   31   33   28   16   26   25
                               24   20   23    8   18   26    9   16   20   11
                               21   13   14    8   20    6   17    4   12    7
                               14   10    6    7    2   11    5    7    6    4
                                3    8    5    5    3    0    1    1    1    1
                                1    2    2    1    1    1    0    0    2    2
                                0    1    0    0    0    1    1    0    0    5

 Normal termination of simulation

