1
 SUMMARY VOLUMETRIC BUDGET FOR GSFLOW 
 DATE: 10 07 1980              CUMULATIVE TIME STEP:       7
 MODFLOW STRESS PERIOD      1     CURRENT TIME STEP:       7     ITERATIONS:       9

 -----------------------------------------------------------------------------------

   CUMULATIVE VOLUMES               L**3   RATES FOR THIS TIME STEP           L**3/T
   ------------------                      ------------------------

                                     IN                                         IN
                                     --                                         --
        PRECIPITATION =                            PRECIPITATION =                  
           STREAMFLOW =                               STREAMFLOW =                  
     GW BOUNDARY FLOW =                         GW BOUNDARY FLOW =                  


                                    OUT                                        OUT
                                    ---                                        ---
   EVAPOTRANSPIRATION =        2724885.26     EVAPOTRANSPIRATION =         222502.22
           STREAMFLOW =        1672054.77             STREAMFLOW =         183556.66
     GW BOUNDARY FLOW =                         GW BOUNDARY FLOW =                  

   INFLOWS - OUTFLOWS =       -4396940.03     INFLOWS - OUTFLOWS =        -406058.88
             --------                                   --------

 TOTAL STORAGE CHANGE =       -1.3516D+07         STORAGE CHANGE =       -1556856.52
       --------------                             --------------
         LAND SURFACE =                             LAND SURFACE =                  
            SOIL ZONE =       -1767237.57              SOIL ZONE =        -172462.26
     UNSATURATED ZONE =       -1427585.40       UNSATURATED ZONE =         -54506.94
       SATURATED ZONE =       -1355884.78         SATURATED ZONE =        -270312.94
                LAKES =       -8965196.88                  LAKES =       -1059574.38

 OVERALL BUDGET ERROR =        9118964.60           BUDGET ERROR =        1150797.64

  ***WARNING, CUMULATIVE VOLUME OFF > 5%
  ***CAUTION, FLUX RATES OFF > 10%

  PERCENT DISCREPANCY =            101.81    PERCENT DISCREPANCY =            117.25



1
 SUMMARY VOLUMETRIC BUDGET FOR GSFLOW 
 DATE: 10 14 1980              CUMULATIVE TIME STEP:      14
 MODFLOW STRESS PERIOD      1     CURRENT TIME STEP:      14     ITERATIONS:       5

 -----------------------------------------------------------------------------------

   CUMULATIVE VOLUMES               L**3   RATES FOR THIS TIME STEP           L**3/T
   ------------------                      ------------------------

                                     IN                                         IN
                                     --                                         --
        PRECIPITATION =        1.3442D+07          PRECIPITATION =        6721104.51
           STREAMFLOW =                               STREAMFLOW =                  
     GW BOUNDARY FLOW =                         GW BOUNDARY FLOW =                  


                                    OUT                                        OUT
                                    ---                                        ---
   EVAPOTRANSPIRATION =        3920385.25     EVAPOTRANSPIRATION =         208509.02
           STREAMFLOW =        2279285.68             STREAMFLOW =          34842.32
     GW BOUNDARY FLOW =                         GW BOUNDARY FLOW =                  

   INFLOWS - OUTFLOWS =        7242538.09     INFLOWS - OUTFLOWS =        6477753.17
             --------                                   --------

 TOTAL STORAGE CHANGE =       -7907105.21         STORAGE CHANGE =        6226577.87
       --------------                             --------------
         LAND SURFACE =        2552191.87           LAND SURFACE =        1584944.64
            SOIL ZONE =        4462805.75              SOIL ZONE =        3052467.76
     UNSATURATED ZONE =       -1864557.22       UNSATURATED ZONE =         -62760.88
       SATURATED ZONE =       -2790137.11         SATURATED ZONE =        -112650.52
                LAKES =       -1.0267D+07                  LAKES =        1764576.88

 OVERALL BUDGET ERROR =        1.5150D+07           BUDGET ERROR =         251175.29

  ***WARNING, CUMULATIVE VOLUME OFF > 5%
  ***WARNING, FLUX RATES OFF > 3%

  PERCENT DISCREPANCY =            109.98    PERCENT DISCREPANCY =              3.81



1
 SUMMARY VOLUMETRIC BUDGET FOR GSFLOW 
 DATE: 10 21 1980              CUMULATIVE TIME STEP:      21
 MODFLOW STRESS PERIOD      1     CURRENT TIME STEP:      21     ITERATIONS:       3

 -----------------------------------------------------------------------------------

   CUMULATIVE VOLUMES               L**3   RATES FOR THIS TIME STEP           L**3/T
   ------------------                      ------------------------

                                     IN                                         IN
                                     --                                         --
        PRECIPITATION =        1.6803D+07          PRECIPITATION =                  
           STREAMFLOW =                               STREAMFLOW =                  
     GW BOUNDARY FLOW =                         GW BOUNDARY FLOW =                  


                                    OUT                                        OUT
                                    ---                                        ---
   EVAPOTRANSPIRATION =        7127350.45     EVAPOTRANSPIRATION =         571344.75
           STREAMFLOW =        3039700.92             STREAMFLOW =         364384.81
     GW BOUNDARY FLOW =                         GW BOUNDARY FLOW =                  

   INFLOWS - OUTFLOWS =        6635709.89     INFLOWS - OUTFLOWS =        -935729.57
             --------                                   --------

 TOTAL STORAGE CHANGE =       -1.1169D+07         STORAGE CHANGE =       -1599250.94
       --------------                             --------------
         LAND SURFACE =         582235.16           LAND SURFACE =        -191386.44
            SOIL ZONE =        5269136.78              SOIL ZONE =        -414473.71
     UNSATURATED ZONE =       -2301443.14       UNSATURATED ZONE =         -56794.73
       SATURATED ZONE =       -3841659.41         SATURATED ZONE =        -163825.56
                LAKES =       -1.0877D+07                  LAKES =        -772770.50

 OVERALL BUDGET ERROR =        1.7805D+07           BUDGET ERROR =         663521.38

  ***WARNING, CUMULATIVE VOLUME OFF > 5%
  ***CAUTION, FLUX RATES OFF > 10%

  PERCENT DISCREPANCY =             93.37    PERCENT DISCREPANCY =             52.35



1
 SUMMARY VOLUMETRIC BUDGET FOR GSFLOW 
 DATE: 10 28 1980              CUMULATIVE TIME STEP:      28
 MODFLOW STRESS PERIOD      1     CURRENT TIME STEP:      28     ITERATIONS:       3

 -----------------------------------------------------------------------------------

   CUMULATIVE VOLUMES               L**3   RATES FOR THIS TIME STEP           L**3/T
   ------------------                      ------------------------

                                     IN                                         IN
                                     --                                         --
        PRECIPITATION =        4.0327D+07          PRECIPITATION =                  
           STREAMFLOW =                               STREAMFLOW =                  
     GW BOUNDARY FLOW =                         GW BOUNDARY FLOW =                  


                                    OUT                                        OUT
                                    ---                                        ---
   EVAPOTRANSPIRATION =        1.0154D+07     EVAPOTRANSPIRATION =         265729.49
           STREAMFLOW =        5483201.61             STREAMFLOW =         342842.50
     GW BOUNDARY FLOW =                         GW BOUNDARY FLOW =                  

   INFLOWS - OUTFLOWS =        2.4690D+07     INFLOWS - OUTFLOWS =        -608571.99
             --------                                   --------

 TOTAL STORAGE CHANGE =        3186816.39         STORAGE CHANGE =        -664861.93
       --------------                             --------------
         LAND SURFACE =        4873656.87           LAND SURFACE =        -161715.81
            SOIL ZONE =        1.3221D+07              SOIL ZONE =        -244957.12
     UNSATURATED ZONE =       -2535050.95       UNSATURATED ZONE =         -10709.87
       SATURATED ZONE =       -4560543.83         SATURATED ZONE =        -121977.39
                LAKES =       -7812245.83                  LAKES =        -125501.73

 OVERALL BUDGET ERROR =        2.1503D+07           BUDGET ERROR =          56289.94

  ***WARNING, CUMULATIVE VOLUME OFF > 5%
  ***WARNING, FLUX RATES OFF > 3%

  PERCENT DISCREPANCY =             72.71    PERCENT DISCREPANCY =              8.84



1
 SUMMARY VOLUMETRIC BUDGET FOR GSFLOW 
 DATE: 11 04 1980              CUMULATIVE TIME STEP:      35
 MODFLOW STRESS PERIOD      1     CURRENT TIME STEP:      35     ITERATIONS:       5

 -----------------------------------------------------------------------------------

   CUMULATIVE VOLUMES               L**3   RATES FOR THIS TIME STEP           L**3/T
   ------------------                      ------------------------

                                     IN                                         IN
                                     --                                         --
        PRECIPITATION =        5.0408D+07          PRECIPITATION =                  
           STREAMFLOW =                               STREAMFLOW =                  
     GW BOUNDARY FLOW =                         GW BOUNDARY FLOW =                  


                                    OUT                                        OUT
                                    ---                                        ---
   EVAPOTRANSPIRATION =        1.8112D+07     EVAPOTRANSPIRATION =        1460208.76
           STREAMFLOW =        7932127.86             STREAMFLOW =         350029.38
     GW BOUNDARY FLOW =                         GW BOUNDARY FLOW =                  

   INFLOWS - OUTFLOWS =        2.4365D+07     INFLOWS - OUTFLOWS =       -1810238.13
             --------                                   --------

 TOTAL STORAGE CHANGE =       -2389382.63         STORAGE CHANGE =       -2820957.98
       --------------                             --------------
         LAND SURFACE =         253222.42           LAND SURFACE =         -53384.75
            SOIL ZONE =        1.0873D+07              SOIL ZONE =       -1467744.44
     UNSATURATED ZONE =       -2273998.80       UNSATURATED ZONE =         -37768.54
       SATURATED ZONE =       -5058765.14         SATURATED ZONE =        -262701.06
                LAKES =       -6182549.39                  LAKES =        -999359.19

 OVERALL BUDGET ERROR =        2.6754D+07           BUDGET ERROR =        1010719.85

  ***WARNING, CUMULATIVE VOLUME OFF > 5%
  ***CAUTION, FLUX RATES OFF > 10%

  PERCENT DISCREPANCY =             67.87    PERCENT DISCREPANCY =             43.65



1
 SUMMARY VOLUMETRIC BUDGET FOR GSFLOW 
 DATE: 11 11 1980              CUMULATIVE TIME STEP:      42
 MODFLOW STRESS PERIOD      1     CURRENT TIME STEP:      42     ITERATIONS:       3

 -----------------------------------------------------------------------------------

   CUMULATIVE VOLUMES               L**3   RATES FOR THIS TIME STEP           L**3/T
   ------------------                      ------------------------

                                     IN                                         IN
                                     --                                         --
        PRECIPITATION =        7.9485D+07          PRECIPITATION =        3230734.65
           STREAMFLOW =                               STREAMFLOW =                  
     GW BOUNDARY FLOW =                         GW BOUNDARY FLOW =                  


                                    OUT                                        OUT
                                    ---                                        ---
   EVAPOTRANSPIRATION =        2.7180D+07     EVAPOTRANSPIRATION =         779896.04
           STREAMFLOW =        9809898.78             STREAMFLOW =         250107.38
     GW BOUNDARY FLOW =                         GW BOUNDARY FLOW =                  

   INFLOWS - OUTFLOWS =        4.2495D+07     INFLOWS - OUTFLOWS =        2200731.24
             --------                                   --------

 TOTAL STORAGE CHANGE =        7793930.21         STORAGE CHANGE =        1226644.38
       --------------                             --------------
         LAND SURFACE =        3621835.70           LAND SURFACE =         -63920.05
            SOIL ZONE =        1.6538D+07              SOIL ZONE =         762206.74
     UNSATURATED ZONE =       -2252167.17       UNSATURATED ZONE =          55029.83
       SATURATED ZONE =       -5996011.36         SATURATED ZONE =         -55449.89
                LAKES =       -4117774.14                  LAKES =         528777.75

 OVERALL BUDGET ERROR =        3.4701D+07           BUDGET ERROR =         974086.86

  ***WARNING, CUMULATIVE VOLUME OFF > 5%
  ***CAUTION, FLUX RATES OFF > 10%

  PERCENT DISCREPANCY =             55.85    PERCENT DISCREPANCY =             35.50



1
 SUMMARY VOLUMETRIC BUDGET FOR GSFLOW 
 DATE: 11 18 1980              CUMULATIVE TIME STEP:      49
 MODFLOW STRESS PERIOD      1     CURRENT TIME STEP:      49     ITERATIONS:       3

 -----------------------------------------------------------------------------------

   CUMULATIVE VOLUMES               L**3   RATES FOR THIS TIME STEP           L**3/T
   ------------------                      ------------------------

                                     IN                                         IN
                                     --                                         --
        PRECIPITATION =        8.5946D+07          PRECIPITATION =                  
           STREAMFLOW =                               STREAMFLOW =                  
     GW BOUNDARY FLOW =                         GW BOUNDARY FLOW =                  


                                    OUT                                        OUT
                                    ---                                        ---
   EVAPOTRANSPIRATION =        3.0596D+07     EVAPOTRANSPIRATION =         894979.91
           STREAMFLOW =        1.1638D+07             STREAMFLOW =         312768.59
     GW BOUNDARY FLOW =                         GW BOUNDARY FLOW =                  

   INFLOWS - OUTFLOWS =        4.3712D+07     INFLOWS - OUTFLOWS =       -1207748.51
             --------                                   --------

 TOTAL STORAGE CHANGE =        6562337.18         STORAGE CHANGE =       -1725884.58
       --------------                             --------------
         LAND SURFACE =        4247190.46           LAND SURFACE =        -429064.21
            SOIL ZONE =        1.6079D+07              SOIL ZONE =        -611547.64
     UNSATURATED ZONE =       -2148689.18       UNSATURATED ZONE =          22492.73
       SATURATED ZONE =       -7212802.21         SATURATED ZONE =        -169386.39
                LAKES =       -4402576.58                  LAKES =        -538379.06

 OVERALL BUDGET ERROR =        3.7149D+07           BUDGET ERROR =         518136.07

  ***WARNING, CUMULATIVE VOLUME OFF > 5%
  ***CAUTION, FLUX RATES OFF > 10%

  PERCENT DISCREPANCY =             55.14    PERCENT DISCREPANCY =             35.32



1
 SUMMARY VOLUMETRIC BUDGET FOR GSFLOW 
 DATE: 11 25 1980              CUMULATIVE TIME STEP:      56
 MODFLOW STRESS PERIOD      1     CURRENT TIME STEP:      56     ITERATIONS:       3

 -----------------------------------------------------------------------------------

   CUMULATIVE VOLUMES               L**3   RATES FOR THIS TIME STEP           L**3/T
   ------------------                      ------------------------

                                     IN                                         IN
                                     --                                         --
        PRECIPITATION =        8.9177D+07          PRECIPITATION =                  
           STREAMFLOW =                               STREAMFLOW =                  
     GW BOUNDARY FLOW =                         GW BOUNDARY FLOW =                  


                                    OUT                                        OUT
                                    ---                                        ---
   EVAPOTRANSPIRATION =        3.4261D+07     EVAPOTRANSPIRATION =         152960.05
           STREAMFLOW =        1.4055D+07             STREAMFLOW =         437097.06
     GW BOUNDARY FLOW =                         GW BOUNDARY FLOW =                  

   INFLOWS - OUTFLOWS =        4.0861D+07     INFLOWS - OUTFLOWS =        -590057.11
             --------                                   --------

 TOTAL STORAGE CHANGE =         581982.88         STORAGE CHANGE =        -726311.33
       --------------                             --------------
         LAND SURFACE =        4128151.39           LAND SURFACE =         -26936.60
            SOIL ZONE =        1.4196D+07              SOIL ZONE =        -181879.55
     UNSATURATED ZONE =       -2159820.94       UNSATURATED ZONE =         -15671.21
       SATURATED ZONE =       -8434020.18         SATURATED ZONE =        -180330.00
                LAKES =       -7148768.14                  LAKES =        -321493.97

 OVERALL BUDGET ERROR =        4.0279D+07           BUDGET ERROR =         136254.22

  ***WARNING, CUMULATIVE VOLUME OFF > 5%
  ***CAUTION, FLUX RATES OFF > 10%

  PERCENT DISCREPANCY =             58.34    PERCENT DISCREPANCY =             20.70



1
 SUMMARY VOLUMETRIC BUDGET FOR GSFLOW 
 DATE: 12 02 1980              CUMULATIVE TIME STEP:      63
 MODFLOW STRESS PERIOD      1     CURRENT TIME STEP:      63     ITERATIONS:       3

 -----------------------------------------------------------------------------------

   CUMULATIVE VOLUMES               L**3   RATES FOR THIS TIME STEP           L**3/T
   ------------------                      ------------------------

                                     IN                                         IN
                                     --                                         --
        PRECIPITATION =        1.0846D+08          PRECIPITATION =        3198161.89
           STREAMFLOW =                               STREAMFLOW =                  
     GW BOUNDARY FLOW =                         GW BOUNDARY FLOW =                  


                                    OUT                                        OUT
                                    ---                                        ---
   EVAPOTRANSPIRATION =        3.8798D+07     EVAPOTRANSPIRATION =         677919.88
           STREAMFLOW =        1.7318D+07             STREAMFLOW =         437254.56
     GW BOUNDARY FLOW =                         GW BOUNDARY FLOW =                  

   INFLOWS - OUTFLOWS =        5.2348D+07     INFLOWS - OUTFLOWS =        2082987.45
             --------                                   --------

 TOTAL STORAGE CHANGE =        8893414.19         STORAGE CHANGE =        1341178.11
       --------------                             --------------
         LAND SURFACE =        7153033.02           LAND SURFACE =        -909613.46
            SOIL ZONE =        1.8136D+07              SOIL ZONE =        1727180.83
     UNSATURATED ZONE =       -2002652.91       UNSATURATED ZONE =          55333.89
       SATURATED ZONE =       -9174466.38         SATURATED ZONE =         -57797.08
                LAKES =       -5218027.04                  LAKES =         526073.94

 OVERALL BUDGET ERROR =        4.3455D+07           BUDGET ERROR =         741809.34

  ***WARNING, CUMULATIVE VOLUME OFF > 5%
  ***CAUTION, FLUX RATES OFF > 10%

  PERCENT DISCREPANCY =             50.10    PERCENT DISCREPANCY =             26.24



1
 SUMMARY VOLUMETRIC BUDGET FOR GSFLOW 
 DATE: 12 09 1980              CUMULATIVE TIME STEP:      70
 MODFLOW STRESS PERIOD      1     CURRENT TIME STEP:      70     ITERATIONS:      14

 -----------------------------------------------------------------------------------

   CUMULATIVE VOLUMES               L**3   RATES FOR THIS TIME STEP           L**3/T
   ------------------                      ------------------------

                                     IN                                         IN
                                     --                                         --
        PRECIPITATION =        1.7882D+08          PRECIPITATION =                  
           STREAMFLOW =                               STREAMFLOW =                  
     GW BOUNDARY FLOW =                         GW BOUNDARY FLOW =                  


                                    OUT                                        OUT
                                    ---                                        ---
   EVAPOTRANSPIRATION =        4.0308D+07     EVAPOTRANSPIRATION =         242215.44
           STREAMFLOW =        2.0283D+07             STREAMFLOW =         420980.03
     GW BOUNDARY FLOW =                         GW BOUNDARY FLOW =                  

   INFLOWS - OUTFLOWS =        1.1823D+08     INFLOWS - OUTFLOWS =        -663195.47
             --------                                   --------

 TOTAL STORAGE CHANGE =        7.3442D+07         STORAGE CHANGE =        -820634.92
       --------------                             --------------
         LAND SURFACE =        5.1471D+07           LAND SURFACE =        -232729.71
            SOIL ZONE =        2.0856D+07              SOIL ZONE =        -154164.91
     UNSATURATED ZONE =       -1510194.58       UNSATURATED ZONE =          36557.79
       SATURATED ZONE =       -1.0134D+07         SATURATED ZONE =        -196924.69
                LAKES =        1.2759D+07                  LAKES =        -273373.41

 OVERALL BUDGET ERROR =        4.4791D+07           BUDGET ERROR =         157439.45

  ***WARNING, CUMULATIVE VOLUME OFF > 5%
  ***CAUTION, FLUX RATES OFF > 10%

  PERCENT DISCREPANCY =             28.63    PERCENT DISCREPANCY =             21.22



1
 SUMMARY VOLUMETRIC BUDGET FOR GSFLOW 
 DATE: 12 16 1980              CUMULATIVE TIME STEP:      77
 MODFLOW STRESS PERIOD      1     CURRENT TIME STEP:      77     ITERATIONS:       2

 -----------------------------------------------------------------------------------

   CUMULATIVE VOLUMES               L**3   RATES FOR THIS TIME STEP           L**3/T
   ------------------                      ------------------------

                                     IN                                         IN
                                     --                                         --
        PRECIPITATION =        1.7882D+08          PRECIPITATION =                  
           STREAMFLOW =                               STREAMFLOW =                  
     GW BOUNDARY FLOW =                         GW BOUNDARY FLOW =                  


                                    OUT                                        OUT
                                    ---                                        ---
   EVAPOTRANSPIRATION =        4.4321D+07     EVAPOTRANSPIRATION =         886455.42
           STREAMFLOW =        2.3263D+07             STREAMFLOW =         430699.19
     GW BOUNDARY FLOW =                         GW BOUNDARY FLOW =                  

   INFLOWS - OUTFLOWS =        1.1124D+08     INFLOWS - OUTFLOWS =       -1317154.61
             --------                                   --------

 TOTAL STORAGE CHANGE =        6.3801D+07         STORAGE CHANGE =       -1939253.12
       --------------                             --------------
         LAND SURFACE =        4.7223D+07           LAND SURFACE =       -1206516.26
            SOIL ZONE =        2.0409D+07              SOIL ZONE =         196090.26
     UNSATURATED ZONE =       -1415248.54       UNSATURATED ZONE =           4045.54
       SATURATED ZONE =       -1.1472D+07         SATURATED ZONE =        -177058.28
                LAKES =        9056343.97                  LAKES =        -755814.38

 OVERALL BUDGET ERROR =        4.7437D+07           BUDGET ERROR =         622098.51

  ***WARNING, CUMULATIVE VOLUME OFF > 5%
  ***CAUTION, FLUX RATES OFF > 10%

  PERCENT DISCREPANCY =             30.58    PERCENT DISCREPANCY =             38.21



1
 SUMMARY VOLUMETRIC BUDGET FOR GSFLOW 
 DATE: 12 23 1980              CUMULATIVE TIME STEP:      84
 MODFLOW STRESS PERIOD      1     CURRENT TIME STEP:      84     ITERATIONS:       3

 -----------------------------------------------------------------------------------

   CUMULATIVE VOLUMES               L**3   RATES FOR THIS TIME STEP           L**3/T
   ------------------                      ------------------------

                                     IN                                         IN
                                     --                                         --
        PRECIPITATION =        1.8522D+08          PRECIPITATION =        3198161.89
           STREAMFLOW =                               STREAMFLOW =                  
     GW BOUNDARY FLOW =                         GW BOUNDARY FLOW =                  


                                    OUT                                        OUT
                                    ---                                        ---
   EVAPOTRANSPIRATION =        4.9394D+07     EVAPOTRANSPIRATION =         637958.23
           STREAMFLOW =        2.6316D+07             STREAMFLOW =         443589.09
     GW BOUNDARY FLOW =                         GW BOUNDARY FLOW =                  

   INFLOWS - OUTFLOWS =        1.0951D+08     INFLOWS - OUTFLOWS =        2116614.58
             --------                                   --------

 TOTAL STORAGE CHANGE =        5.8522D+07         STORAGE CHANGE =        1533245.43
       --------------                             --------------
         LAND SURFACE =        4.2129D+07           LAND SURFACE =        -245970.29
            SOIL ZONE =        2.2991D+07              SOIL ZONE =        1215614.52
     UNSATURATED ZONE =       -1141749.60       UNSATURATED ZONE =         130400.99
       SATURATED ZONE =       -1.2365D+07         SATURATED ZONE =         -80004.92
                LAKES =        6909536.37                  LAKES =         513205.12

 OVERALL BUDGET ERROR =        5.0988D+07           BUDGET ERROR =         583369.15

  ***WARNING, CUMULATIVE VOLUME OFF > 5%
  ***CAUTION, FLUX RATES OFF > 10%

  PERCENT DISCREPANCY =             31.92    PERCENT DISCREPANCY =             20.07



1
 SUMMARY VOLUMETRIC BUDGET FOR GSFLOW 
 DATE: 12 30 1980              CUMULATIVE TIME STEP:      91
 MODFLOW STRESS PERIOD      1     CURRENT TIME STEP:      91     ITERATIONS:      15

 -----------------------------------------------------------------------------------

   CUMULATIVE VOLUMES               L**3   RATES FOR THIS TIME STEP           L**3/T
   ------------------                      ------------------------

                                     IN                                         IN
                                     --                                         --
        PRECIPITATION =        1.8522D+08          PRECIPITATION =                  
           STREAMFLOW =                               STREAMFLOW =                  
     GW BOUNDARY FLOW =                         GW BOUNDARY FLOW =                  


                                    OUT                                        OUT
                                    ---                                        ---
   EVAPOTRANSPIRATION =        5.5933D+07     EVAPOTRANSPIRATION =         811483.89
           STREAMFLOW =        2.9400D+07             STREAMFLOW =         445285.34
     GW BOUNDARY FLOW =                         GW BOUNDARY FLOW =                  

   INFLOWS - OUTFLOWS =        9.9887D+07     INFLOWS - OUTFLOWS =       -1256769.23
             --------                                   --------

 TOTAL STORAGE CHANGE =        4.5088D+07         STORAGE CHANGE =       -1711182.99
       --------------                             --------------
         LAND SURFACE =        3.5990D+07           LAND SURFACE =        -559081.80
            SOIL ZONE =        2.1075D+07              SOIL ZONE =        -390914.98
     UNSATURATED ZONE =        -964619.49       UNSATURATED ZONE =           7027.46
       SATURATED ZONE =       -1.3399D+07         SATURATED ZONE =        -159685.05
                LAKES =        2387456.34                  LAKES =        -608528.62

 OVERALL BUDGET ERROR =        5.4799D+07           BUDGET ERROR =         454413.76

  ***WARNING, CUMULATIVE VOLUME OFF > 5%
  ***CAUTION, FLUX RATES OFF > 10%

  PERCENT DISCREPANCY =             34.72    PERCENT DISCREPANCY =             30.62



1
 SUMMARY VOLUMETRIC BUDGET FOR GSFLOW 
 DATE: 01 06 1981              CUMULATIVE TIME STEP:      98
 MODFLOW STRESS PERIOD      1     CURRENT TIME STEP:      98     ITERATIONS:       9

 -----------------------------------------------------------------------------------

   CUMULATIVE VOLUMES               L**3   RATES FOR THIS TIME STEP           L**3/T
   ------------------                      ------------------------

                                     IN                                         IN
                                     --                                         --
        PRECIPITATION =        2.0923D+08          PRECIPITATION =                  
           STREAMFLOW =                               STREAMFLOW =                  
     GW BOUNDARY FLOW =                         GW BOUNDARY FLOW =                  


                                    OUT                                        OUT
                                    ---                                        ---
   EVAPOTRANSPIRATION =        6.0945D+07     EVAPOTRANSPIRATION =         701609.74
           STREAMFLOW =        3.2520D+07             STREAMFLOW =         445584.47
     GW BOUNDARY FLOW =                         GW BOUNDARY FLOW =                  

   INFLOWS - OUTFLOWS =        1.1576D+08     INFLOWS - OUTFLOWS =       -1147194.21
             --------                                   --------

 TOTAL STORAGE CHANGE =        5.7815D+07         STORAGE CHANGE =       -1613026.01
       --------------                             --------------
         LAND SURFACE =        4.1576D+07           LAND SURFACE =        -362260.72
            SOIL ZONE =        2.3930D+07              SOIL ZONE =        -580367.47
     UNSATURATED ZONE =        -462407.26       UNSATURATED ZONE =          76297.22
       SATURATED ZONE =       -1.4047D+07         SATURATED ZONE =        -196675.28
                LAKES =        6817310.19                  LAKES =        -550019.75

 OVERALL BUDGET ERROR =        5.7946D+07           BUDGET ERROR =         465831.80

  ***WARNING, CUMULATIVE VOLUME OFF > 5%
  ***CAUTION, FLUX RATES OFF > 10%

  PERCENT DISCREPANCY =             32.15    PERCENT DISCREPANCY =             33.75



1
 SUMMARY VOLUMETRIC BUDGET FOR GSFLOW 
 DATE: 01 13 1981              CUMULATIVE TIME STEP:     105
 MODFLOW STRESS PERIOD      1     CURRENT TIME STEP:     105     ITERATIONS:       4

 -----------------------------------------------------------------------------------

   CUMULATIVE VOLUMES               L**3   RATES FOR THIS TIME STEP           L**3/T
   ------------------                      ------------------------

                                     IN                                         IN
                                     --                                         --
        PRECIPITATION =        2.1223D+08          PRECIPITATION =                  
           STREAMFLOW =                               STREAMFLOW =                  
     GW BOUNDARY FLOW =                         GW BOUNDARY FLOW =                  


                                    OUT                                        OUT
                                    ---                                        ---
   EVAPOTRANSPIRATION =        6.6385D+07     EVAPOTRANSPIRATION =         930072.24
           STREAMFLOW =        3.5651D+07             STREAMFLOW =         457548.53
     GW BOUNDARY FLOW =                         GW BOUNDARY FLOW =                  

   INFLOWS - OUTFLOWS =        1.1019D+08     INFLOWS - OUTFLOWS =       -1387620.77
             --------                                   --------

 TOTAL STORAGE CHANGE =        4.9045D+07         STORAGE CHANGE =       -1916244.79
       --------------                             --------------
         LAND SURFACE =        4.0089D+07           LAND SURFACE =        -485861.71
            SOIL ZONE =        2.1253D+07              SOIL ZONE =        -521186.66
     UNSATURATED ZONE =        -321310.72       UNSATURATED ZONE =          -3871.35
       SATURATED ZONE =       -1.5269D+07         SATURATED ZONE =        -174409.58
                LAKES =        3293070.28                  LAKES =        -730915.50

 OVERALL BUDGET ERROR =        6.1146D+07           BUDGET ERROR =         528624.02

  ***WARNING, CUMULATIVE VOLUME OFF > 5%
  ***CAUTION, FLUX RATES OFF > 10%

  PERCENT DISCREPANCY =             33.66    PERCENT DISCREPANCY =             32.00



1
 SUMMARY VOLUMETRIC BUDGET FOR GSFLOW 
 DATE: 01 20 1981              CUMULATIVE TIME STEP:     112
 MODFLOW STRESS PERIOD      1     CURRENT TIME STEP:     112     ITERATIONS:       6

 -----------------------------------------------------------------------------------

   CUMULATIVE VOLUMES               L**3   RATES FOR THIS TIME STEP           L**3/T
   ------------------                      ------------------------

                                     IN                                         IN
                                     --                                         --
        PRECIPITATION =        2.2423D+08          PRECIPITATION =        6001392.59
           STREAMFLOW =                               STREAMFLOW =                  
     GW BOUNDARY FLOW =                         GW BOUNDARY FLOW =                  


                                    OUT                                        OUT
                                    ---                                        ---
   EVAPOTRANSPIRATION =        7.3741D+07     EVAPOTRANSPIRATION =        1178171.16
           STREAMFLOW =        3.9242D+07             STREAMFLOW =         485900.78
     GW BOUNDARY FLOW =                         GW BOUNDARY FLOW =                  

   INFLOWS - OUTFLOWS =        1.1125D+08     INFLOWS - OUTFLOWS =        4337320.64
             --------                                   --------

 TOTAL STORAGE CHANGE =        4.5810D+07         STORAGE CHANGE =        3485688.32
       --------------                             --------------
         LAND SURFACE =        3.7521D+07           LAND SURFACE =         673026.77
            SOIL ZONE =        2.2538D+07              SOIL ZONE =        1303230.12
     UNSATURATED ZONE =         -83693.45       UNSATURATED ZONE =         108957.46
       SATURATED ZONE =       -1.5970D+07         SATURATED ZONE =          30827.97
                LAKES =        1804685.62                  LAKES =        1369646.00

 OVERALL BUDGET ERROR =        6.5436D+07           BUDGET ERROR =         851632.33

  ***WARNING, CUMULATIVE VOLUME OFF > 5%
  ***CAUTION, FLUX RATES OFF > 10%

  PERCENT DISCREPANCY =             34.17    PERCENT DISCREPANCY =             15.27



1
 SUMMARY VOLUMETRIC BUDGET FOR GSFLOW 
 DATE: 01 27 1981              CUMULATIVE TIME STEP:     119
 MODFLOW STRESS PERIOD      1     CURRENT TIME STEP:     119     ITERATIONS:      30

 -----------------------------------------------------------------------------------

   CUMULATIVE VOLUMES               L**3   RATES FOR THIS TIME STEP           L**3/T
   ------------------                      ------------------------

                                     IN                                         IN
                                     --                                         --
        PRECIPITATION =        3.3525D+08          PRECIPITATION =        6.0014D+07
           STREAMFLOW =                               STREAMFLOW =                  
     GW BOUNDARY FLOW =                         GW BOUNDARY FLOW =                  


                                    OUT                                        OUT
                                    ---                                        ---
   EVAPOTRANSPIRATION =        7.9557D+07     EVAPOTRANSPIRATION =         415599.71
           STREAMFLOW =        4.1754D+07             STREAMFLOW =         346036.12
     GW BOUNDARY FLOW =                         GW BOUNDARY FLOW =                  

   INFLOWS - OUTFLOWS =        2.1394D+08     INFLOWS - OUTFLOWS =        5.9252D+07
             --------                                   --------

 TOTAL STORAGE CHANGE =        1.4437D+08         STORAGE CHANGE =        5.8652D+07
       --------------                             --------------
         LAND SURFACE =        1.0747D+08           LAND SURFACE =        4.1072D+07
            SOIL ZONE =        2.4045D+07              SOIL ZONE =        1572152.99
     UNSATURATED ZONE =         477302.98       UNSATURATED ZONE =         104684.12
       SATURATED ZONE =       -1.6565D+07         SATURATED ZONE =          32854.58
                LAKES =        2.8951D+07                  LAKES =        1.5870D+07

 OVERALL BUDGET ERROR =        6.9569D+07           BUDGET ERROR =         600089.01

  ***WARNING, CUMULATIVE VOLUME OFF > 5%

  PERCENT DISCREPANCY =             23.15    PERCENT DISCREPANCY =              1.00



1
 SUMMARY VOLUMETRIC BUDGET FOR GSFLOW 
 DATE: 02 03 1981              CUMULATIVE TIME STEP:     126
 MODFLOW STRESS PERIOD      1     CURRENT TIME STEP:     126     ITERATIONS:      26

 -----------------------------------------------------------------------------------

   CUMULATIVE VOLUMES               L**3   RATES FOR THIS TIME STEP           L**3/T
   ------------------                      ------------------------

                                     IN                                         IN
                                     --                                         --
        PRECIPITATION =        4.0137D+08          PRECIPITATION =                  
           STREAMFLOW =                               STREAMFLOW =                  
     GW BOUNDARY FLOW =                         GW BOUNDARY FLOW =                  


                                    OUT                                        OUT
                                    ---                                        ---
   EVAPOTRANSPIRATION =        8.1743D+07     EVAPOTRANSPIRATION =         540898.68
           STREAMFLOW =        4.4234D+07             STREAMFLOW =         354942.25
     GW BOUNDARY FLOW =                         GW BOUNDARY FLOW =                  

   INFLOWS - OUTFLOWS =        2.7539D+08     INFLOWS - OUTFLOWS =        -895840.93
             --------                                   --------

 TOTAL STORAGE CHANGE =        2.0379D+08         STORAGE CHANGE =       -1280626.83
       --------------                             --------------
         LAND SURFACE =        1.5382D+08           LAND SURFACE =        -497697.44
            SOIL ZONE =        2.2891D+07              SOIL ZONE =        -155002.46
     UNSATURATED ZONE =         848926.36       UNSATURATED ZONE =          10247.88
       SATURATED ZONE =       -1.7805D+07         SATURATED ZONE =        -169369.59
                LAKES =        4.4039D+07                  LAKES =        -468805.22

 OVERALL BUDGET ERROR =        7.1596D+07           BUDGET ERROR =         384785.90

  ***WARNING, CUMULATIVE VOLUME OFF > 5%
  ***CAUTION, FLUX RATES OFF > 10%

  PERCENT DISCREPANCY =             19.58    PERCENT DISCREPANCY =             35.36



1
 SUMMARY VOLUMETRIC BUDGET FOR GSFLOW 
 DATE: 02 10 1981              CUMULATIVE TIME STEP:     133
 MODFLOW STRESS PERIOD      1     CURRENT TIME STEP:     133     ITERATIONS:       3

 -----------------------------------------------------------------------------------

   CUMULATIVE VOLUMES               L**3   RATES FOR THIS TIME STEP           L**3/T
   ------------------                      ------------------------

                                     IN                                         IN
                                     --                                         --
        PRECIPITATION =        4.1375D+08          PRECIPITATION =        3095932.43
           STREAMFLOW =                               STREAMFLOW =                  
     GW BOUNDARY FLOW =                         GW BOUNDARY FLOW =                  


                                    OUT                                        OUT
                                    ---                                        ---
   EVAPOTRANSPIRATION =        8.4989D+07     EVAPOTRANSPIRATION =         341551.35
           STREAMFLOW =        4.6629D+07             STREAMFLOW =         340354.19
     GW BOUNDARY FLOW =                         GW BOUNDARY FLOW =                  

   INFLOWS - OUTFLOWS =        2.8213D+08     INFLOWS - OUTFLOWS =        2414026.89
             --------                                   --------

 TOTAL STORAGE CHANGE =        2.0808D+08         STORAGE CHANGE =        2127110.71
       --------------                             --------------
         LAND SURFACE =        1.5941D+08           LAND SURFACE =        1678271.41
            SOIL ZONE =        2.2665D+07              SOIL ZONE =         168725.07
     UNSATURATED ZONE =         808384.46       UNSATURATED ZONE =          -4722.87
       SATURATED ZONE =       -1.8926D+07         SATURATED ZONE =        -154385.91
                LAKES =        4.4122D+07                  LAKES =         439223.00

 OVERALL BUDGET ERROR =        7.4050D+07           BUDGET ERROR =         286916.18

  ***WARNING, CUMULATIVE VOLUME OFF > 5%
  ***WARNING, FLUX RATES OFF > 3%

  PERCENT DISCREPANCY =             19.66    PERCENT DISCREPANCY =              9.72



1
 SUMMARY VOLUMETRIC BUDGET FOR GSFLOW 
 DATE: 02 17 1981              CUMULATIVE TIME STEP:     140
 MODFLOW STRESS PERIOD      1     CURRENT TIME STEP:     140     ITERATIONS:       7

 -----------------------------------------------------------------------------------

   CUMULATIVE VOLUMES               L**3   RATES FOR THIS TIME STEP           L**3/T
   ------------------                      ------------------------

                                     IN                                         IN
                                     --                                         --
        PRECIPITATION =        4.6328D+08          PRECIPITATION =                  
           STREAMFLOW =                               STREAMFLOW =                  
     GW BOUNDARY FLOW =                         GW BOUNDARY FLOW =                  


                                    OUT                                        OUT
                                    ---                                        ---
   EVAPOTRANSPIRATION =        9.1808D+07     EVAPOTRANSPIRATION =        1598649.58
           STREAMFLOW =        4.8982D+07             STREAMFLOW =         285975.97
     GW BOUNDARY FLOW =                         GW BOUNDARY FLOW =                  

   INFLOWS - OUTFLOWS =        3.2249D+08     INFLOWS - OUTFLOWS =       -1884625.55
             --------                                   --------

 TOTAL STORAGE CHANGE =        2.4317D+08         STORAGE CHANGE =       -2967209.70
       --------------                             --------------
         LAND SURFACE =        1.7506D+08           LAND SURFACE =       -2254149.30
            SOIL ZONE =        2.8699D+07              SOIL ZONE =        -106085.75
     UNSATURATED ZONE =        1488097.39       UNSATURATED ZONE =         117632.94
       SATURATED ZONE =       -1.9128D+07         SATURATED ZONE =        -124926.04
                LAKES =        5.7051D+07                  LAKES =        -599681.56

 OVERALL BUDGET ERROR =        7.9326D+07           BUDGET ERROR =        1082584.16

  ***WARNING, CUMULATIVE VOLUME OFF > 5%
  ***CAUTION, FLUX RATES OFF > 10%

  PERCENT DISCREPANCY =             18.73    PERCENT DISCREPANCY =             44.63



1
 SUMMARY VOLUMETRIC BUDGET FOR GSFLOW 
 DATE: 02 24 1981              CUMULATIVE TIME STEP:     147
 MODFLOW STRESS PERIOD      1     CURRENT TIME STEP:     147     ITERATIONS:       5

 -----------------------------------------------------------------------------------

   CUMULATIVE VOLUMES               L**3   RATES FOR THIS TIME STEP           L**3/T
   ------------------                      ------------------------

                                     IN                                         IN
                                     --                                         --
        PRECIPITATION =        4.8805D+08          PRECIPITATION =        1.8576D+07
           STREAMFLOW =                               STREAMFLOW =                  
     GW BOUNDARY FLOW =                         GW BOUNDARY FLOW =                  


                                    OUT                                        OUT
                                    ---                                        ---
   EVAPOTRANSPIRATION =        1.0044D+08     EVAPOTRANSPIRATION =         847962.31
           STREAMFLOW =        5.0070D+07             STREAMFLOW =         144037.27
     GW BOUNDARY FLOW =                         GW BOUNDARY FLOW =                  

   INFLOWS - OUTFLOWS =        3.3754D+08     INFLOWS - OUTFLOWS =        1.7584D+07
             --------                                   --------

 TOTAL STORAGE CHANGE =        2.5277D+08         STORAGE CHANGE =        1.7018D+07
       --------------                             --------------
         LAND SURFACE =        1.7597D+08           LAND SURFACE =        1.1072D+07
            SOIL ZONE =        3.0429D+07              SOIL ZONE =         376657.23
     UNSATURATED ZONE =        -140726.77       UNSATURATED ZONE =         304724.13
       SATURATED ZONE =       -1.7525D+07         SATURATED ZONE =          26013.86
                LAKES =        6.4035D+07                  LAKES =        5238123.50

 OVERALL BUDGET ERROR =        8.4778D+07           BUDGET ERROR =         565990.26

  ***WARNING, CUMULATIVE VOLUME OFF > 5%
  ***WARNING, FLUX RATES OFF > 3%

  PERCENT DISCREPANCY =             19.02    PERCENT DISCREPANCY =              3.09



1
 SUMMARY VOLUMETRIC BUDGET FOR GSFLOW 
 DATE: 03 03 1981              CUMULATIVE TIME STEP:     154
 MODFLOW STRESS PERIOD      1     CURRENT TIME STEP:     154     ITERATIONS:       3

 -----------------------------------------------------------------------------------

   CUMULATIVE VOLUMES               L**3   RATES FOR THIS TIME STEP           L**3/T
   ------------------                      ------------------------

                                     IN                                         IN
                                     --                                         --
        PRECIPITATION =        5.0056D+08          PRECIPITATION =                  
           STREAMFLOW =                               STREAMFLOW =                  
     GW BOUNDARY FLOW =                         GW BOUNDARY FLOW =                  


                                    OUT                                        OUT
                                    ---                                        ---
   EVAPOTRANSPIRATION =        1.0566D+08     EVAPOTRANSPIRATION =        1359078.93
           STREAMFLOW =        5.1121D+07             STREAMFLOW =         161766.55
     GW BOUNDARY FLOW =                         GW BOUNDARY FLOW =                  

   INFLOWS - OUTFLOWS =        3.4378D+08     INFLOWS - OUTFLOWS =       -1520845.48
             --------                                   --------

 TOTAL STORAGE CHANGE =        2.5511D+08         STORAGE CHANGE =       -2433616.88
       --------------                             --------------
         LAND SURFACE =        1.7885D+08           LAND SURFACE =       -1096145.58
            SOIL ZONE =        2.8175D+07              SOIL ZONE =        -410674.98
     UNSATURATED ZONE =         724173.32       UNSATURATED ZONE =          13372.94
       SATURATED ZONE =       -1.8767D+07         SATURATED ZONE =        -193068.95
                LAKES =        6.6128D+07                  LAKES =        -747100.31

 OVERALL BUDGET ERROR =        8.8670D+07           BUDGET ERROR =         912771.40

  ***WARNING, CUMULATIVE VOLUME OFF > 5%
  ***CAUTION, FLUX RATES OFF > 10%

  PERCENT DISCREPANCY =             19.44    PERCENT DISCREPANCY =             46.16



1
 SUMMARY VOLUMETRIC BUDGET FOR GSFLOW 
 DATE: 03 10 1981              CUMULATIVE TIME STEP:     161
 MODFLOW STRESS PERIOD      1     CURRENT TIME STEP:     161     ITERATIONS:      34

 -----------------------------------------------------------------------------------

   CUMULATIVE VOLUMES               L**3   RATES FOR THIS TIME STEP           L**3/T
   ------------------                      ------------------------

                                     IN                                         IN
                                     --                                         --
        PRECIPITATION =        5.0378D+08          PRECIPITATION =        3221591.34
           STREAMFLOW =                               STREAMFLOW =                  
     GW BOUNDARY FLOW =                         GW BOUNDARY FLOW =                  


                                    OUT                                        OUT
                                    ---                                        ---
   EVAPOTRANSPIRATION =        1.1646D+08     EVAPOTRANSPIRATION =        1316877.58
           STREAMFLOW =        5.2271D+07             STREAMFLOW =         166367.72
     GW BOUNDARY FLOW =                         GW BOUNDARY FLOW =                  

   INFLOWS - OUTFLOWS =        3.3505D+08     INFLOWS - OUTFLOWS =        1738346.04
             --------                                   --------

 TOTAL STORAGE CHANGE =        2.3927D+08         STORAGE CHANGE =        1030355.97
       --------------                             --------------
         LAND SURFACE =        1.6676D+08           LAND SURFACE =       -1607197.08
            SOIL ZONE =        2.8337D+07              SOIL ZONE =        1145319.82
     UNSATURATED ZONE =         581691.82       UNSATURATED ZONE =          80038.11
       SATURATED ZONE =       -1.9367D+07         SATURATED ZONE =         102009.25
                LAKES =        6.2966D+07                  LAKES =        1310185.88

 OVERALL BUDGET ERROR =        9.5780D+07           BUDGET ERROR =         707990.07

  ***WARNING, CUMULATIVE VOLUME OFF > 5%
  ***CAUTION, FLUX RATES OFF > 10%

  PERCENT DISCREPANCY =             21.01    PERCENT DISCREPANCY =             24.69



1
 SUMMARY VOLUMETRIC BUDGET FOR GSFLOW 
 DATE: 03 17 1981              CUMULATIVE TIME STEP:     168
 MODFLOW STRESS PERIOD      1     CURRENT TIME STEP:     168     ITERATIONS:      32

 -----------------------------------------------------------------------------------

   CUMULATIVE VOLUMES               L**3   RATES FOR THIS TIME STEP           L**3/T
   ------------------                      ------------------------

                                     IN                                         IN
                                     --                                         --
        PRECIPITATION =        5.1345D+08          PRECIPITATION =        3221591.34
           STREAMFLOW =                               STREAMFLOW =                  
     GW BOUNDARY FLOW =                         GW BOUNDARY FLOW =                  


                                    OUT                                        OUT
                                    ---                                        ---
   EVAPOTRANSPIRATION =        1.2552D+08     EVAPOTRANSPIRATION =         673617.66
           STREAMFLOW =        5.3472D+07             STREAMFLOW =         174883.59
     GW BOUNDARY FLOW =                         GW BOUNDARY FLOW =                  

   INFLOWS - OUTFLOWS =        3.3446D+08     INFLOWS - OUTFLOWS =        2373090.08
             --------                                   --------

 TOTAL STORAGE CHANGE =        2.3233D+08         STORAGE CHANGE =        1927951.85
       --------------                             --------------
         LAND SURFACE =        1.6298D+08           LAND SURFACE =        1567731.45
            SOIL ZONE =        2.7093D+07              SOIL ZONE =         -35938.08
     UNSATURATED ZONE =         716592.24       UNSATURATED ZONE =        -118019.30
       SATURATED ZONE =       -2.0152D+07         SATURATED ZONE =         -12161.59
                LAKES =        6.1694D+07                  LAKES =         526339.38

 OVERALL BUDGET ERROR =        1.0213D+08           BUDGET ERROR =         445138.23

  ***WARNING, CUMULATIVE VOLUME OFF > 5%
  ***CAUTION, FLUX RATES OFF > 10%

  PERCENT DISCREPANCY =             22.09    PERCENT DISCREPANCY =             14.84



1
 SUMMARY VOLUMETRIC BUDGET FOR GSFLOW 
 DATE: 03 24 1981              CUMULATIVE TIME STEP:     175
 MODFLOW STRESS PERIOD      1     CURRENT TIME STEP:     175     ITERATIONS:      38

 -----------------------------------------------------------------------------------

   CUMULATIVE VOLUMES               L**3   RATES FOR THIS TIME STEP           L**3/T
   ------------------                      ------------------------

                                     IN                                         IN
                                     --                                         --
        PRECIPITATION =        5.7144D+08          PRECIPITATION =        6443182.67
           STREAMFLOW =                               STREAMFLOW =                  
     GW BOUNDARY FLOW =                         GW BOUNDARY FLOW =                  


                                    OUT                                        OUT
                                    ---                                        ---
   EVAPOTRANSPIRATION =        1.3388D+08     EVAPOTRANSPIRATION =        1098862.36
           STREAMFLOW =        5.4625D+07             STREAMFLOW =         169879.53
     GW BOUNDARY FLOW =                         GW BOUNDARY FLOW =                  

   INFLOWS - OUTFLOWS =        3.8293D+08     INFLOWS - OUTFLOWS =        5174440.78
             --------                                   --------

 TOTAL STORAGE CHANGE =        2.7410D+08         STORAGE CHANGE =        4444224.83
       --------------                             --------------
         LAND SURFACE =        1.9121D+08           LAND SURFACE =        1648492.10
            SOIL ZONE =        2.8768D+07              SOIL ZONE =         662367.89
     UNSATURATED ZONE =        1192135.84       UNSATURATED ZONE =         106881.79
       SATURATED ZONE =       -2.0764D+07         SATURATED ZONE =          61619.81
                LAKES =        7.3692D+07                  LAKES =        1964863.25

 OVERALL BUDGET ERROR =        1.0882D+08           BUDGET ERROR =         730215.95

  ***WARNING, CUMULATIVE VOLUME OFF > 5%
  ***CAUTION, FLUX RATES OFF > 10%

  PERCENT DISCREPANCY =             21.05    PERCENT DISCREPANCY =             12.01



1
 SUMMARY VOLUMETRIC BUDGET FOR GSFLOW 
 DATE: 03 31 1981              CUMULATIVE TIME STEP:     182
 MODFLOW STRESS PERIOD      1     CURRENT TIME STEP:     182     ITERATIONS:      27

 -----------------------------------------------------------------------------------

   CUMULATIVE VOLUMES               L**3   RATES FOR THIS TIME STEP           L**3/T
   ------------------                      ------------------------

                                     IN                                         IN
                                     --                                         --
        PRECIPITATION =        6.3587D+08          PRECIPITATION =        6443182.67
           STREAMFLOW =                               STREAMFLOW =                  
     GW BOUNDARY FLOW =                         GW BOUNDARY FLOW =                  


                                    OUT                                        OUT
                                    ---                                        ---
   EVAPOTRANSPIRATION =        1.4272D+08     EVAPOTRANSPIRATION =         746974.93
           STREAMFLOW =        5.5824D+07             STREAMFLOW =         155306.05
     GW BOUNDARY FLOW =                         GW BOUNDARY FLOW =                  

   INFLOWS - OUTFLOWS =        4.3733D+08     INFLOWS - OUTFLOWS =        5540901.69
             --------                                   --------

 TOTAL STORAGE CHANGE =        3.2177D+08         STORAGE CHANGE =        5044855.78
       --------------                             --------------
         LAND SURFACE =        2.1723D+08           LAND SURFACE =        2850911.63
            SOIL ZONE =        2.9681D+07              SOIL ZONE =         390984.19
     UNSATURATED ZONE =       -2446606.18       UNSATURATED ZONE =         126918.30
       SATURATED ZONE =       -1.7429D+07         SATURATED ZONE =         -69911.47
                LAKES =        9.4735D+07                  LAKES =        1745953.12

 OVERALL BUDGET ERROR =        1.1556D+08           BUDGET ERROR =         496045.92

  ***WARNING, CUMULATIVE VOLUME OFF > 5%
  ***WARNING, FLUX RATES OFF > 3%

  PERCENT DISCREPANCY =             19.99    PERCENT DISCREPANCY =              8.01



1
 SUMMARY VOLUMETRIC BUDGET FOR GSFLOW 
 DATE: 04 07 1981              CUMULATIVE TIME STEP:     189
 MODFLOW STRESS PERIOD      1     CURRENT TIME STEP:     189     ITERATIONS:      19

 -----------------------------------------------------------------------------------

   CUMULATIVE VOLUMES               L**3   RATES FOR THIS TIME STEP           L**3/T
   ------------------                      ------------------------

                                     IN                                         IN
                                     --                                         --
        PRECIPITATION =        6.5328D+08          PRECIPITATION =                  
           STREAMFLOW =                               STREAMFLOW =                  
     GW BOUNDARY FLOW =                         GW BOUNDARY FLOW =                  


                                    OUT                                        OUT
                                    ---                                        ---
   EVAPOTRANSPIRATION =        1.5689D+08     EVAPOTRANSPIRATION =        2506190.22
           STREAMFLOW =        5.6979D+07             STREAMFLOW =         205285.48
     GW BOUNDARY FLOW =                         GW BOUNDARY FLOW =                  

   INFLOWS - OUTFLOWS =        4.3942D+08     INFLOWS - OUTFLOWS =       -2711475.71
             --------                                   --------

 TOTAL STORAGE CHANGE =        3.1356D+08         STORAGE CHANGE =       -4633912.70
       --------------                             --------------
         LAND SURFACE =        1.9636D+08           LAND SURFACE =       -6815335.08
            SOIL ZONE =        2.9804D+07              SOIL ZONE =         -76857.88
     UNSATURATED ZONE =       -1305614.96       UNSATURATED ZONE =         230985.76
       SATURATED ZONE =       -1.6272D+07         SATURATED ZONE =         284316.25
                LAKES =        1.0497D+08                  LAKES =        1742978.25

 OVERALL BUDGET ERROR =        1.2586D+08           BUDGET ERROR =        1922436.99

  ***WARNING, CUMULATIVE VOLUME OFF > 5%
  ***CAUTION, FLUX RATES OFF > 10%

  PERCENT DISCREPANCY =             21.32    PERCENT DISCREPANCY =             52.34



1
 SUMMARY VOLUMETRIC BUDGET FOR GSFLOW 
 DATE: 04 14 1981              CUMULATIVE TIME STEP:     196
 MODFLOW STRESS PERIOD      1     CURRENT TIME STEP:     196     ITERATIONS:      14

 -----------------------------------------------------------------------------------

   CUMULATIVE VOLUMES               L**3   RATES FOR THIS TIME STEP           L**3/T
   ------------------                      ------------------------

                                     IN                                         IN
                                     --                                         --
        PRECIPITATION =        6.5328D+08          PRECIPITATION =                  
           STREAMFLOW =                               STREAMFLOW =                  
     GW BOUNDARY FLOW =                         GW BOUNDARY FLOW =                  


                                    OUT                                        OUT
                                    ---                                        ---
   EVAPOTRANSPIRATION =        1.7511D+08     EVAPOTRANSPIRATION =        3259410.82
           STREAMFLOW =        5.8227D+07             STREAMFLOW =         172184.20
     GW BOUNDARY FLOW =                         GW BOUNDARY FLOW =                  

   INFLOWS - OUTFLOWS =        4.1994D+08     INFLOWS - OUTFLOWS =       -3431595.03
             --------                                   --------

 TOTAL STORAGE CHANGE =        2.8197D+08         STORAGE CHANGE =       -5383323.97
       --------------                             --------------
         LAND SURFACE =        1.5009D+08           LAND SURFACE =       -7639635.76
            SOIL ZONE =        2.5134D+07              SOIL ZONE =        -932876.17
     UNSATURATED ZONE =         633998.84       UNSATURATED ZONE =         310624.78
       SATURATED ZONE =       -1.4505D+07         SATURATED ZONE =         285151.19
                LAKES =        1.2061D+08                  LAKES =        2593412.00

 OVERALL BUDGET ERROR =        1.3798D+08           BUDGET ERROR =        1951728.94

  ***WARNING, CUMULATIVE VOLUME OFF > 5%
  ***CAUTION, FLUX RATES OFF > 10%

  PERCENT DISCREPANCY =             23.61    PERCENT DISCREPANCY =             44.28



1
 SUMMARY VOLUMETRIC BUDGET FOR GSFLOW 
 DATE: 04 21 1981              CUMULATIVE TIME STEP:     203
 MODFLOW STRESS PERIOD      1     CURRENT TIME STEP:     203     ITERATIONS:      51

 -----------------------------------------------------------------------------------

   CUMULATIVE VOLUMES               L**3   RATES FOR THIS TIME STEP           L**3/T
   ------------------                      ------------------------

                                     IN                                         IN
                                     --                                         --
        PRECIPITATION =        6.7418D+08          PRECIPITATION =                  
           STREAMFLOW =                               STREAMFLOW =                  
     GW BOUNDARY FLOW =                         GW BOUNDARY FLOW =                  


                                    OUT                                        OUT
                                    ---                                        ---
   EVAPOTRANSPIRATION =        1.9345D+08     EVAPOTRANSPIRATION =        3353028.66
           STREAMFLOW =        5.9443D+07             STREAMFLOW =         169579.31
     GW BOUNDARY FLOW =                         GW BOUNDARY FLOW =                  

   INFLOWS - OUTFLOWS =        4.2129D+08     INFLOWS - OUTFLOWS =       -3522607.97
             --------                                   --------

 TOTAL STORAGE CHANGE =        2.7155D+08         STORAGE CHANGE =       -5824876.00
       --------------                             --------------
         LAND SURFACE =        1.2707D+08           LAND SURFACE =       -3302133.36
            SOIL ZONE =        2.3142D+07              SOIL ZONE =       -2040864.21
     UNSATURATED ZONE =        1964119.79       UNSATURATED ZONE =         168297.23
       SATURATED ZONE =       -1.4298D+07         SATURATED ZONE =         -86171.59
                LAKES =        1.3367D+08                  LAKES =        -564004.06

 OVERALL BUDGET ERROR =        1.4974D+08           BUDGET ERROR =        2302268.03

  ***WARNING, CUMULATIVE VOLUME OFF > 5%
  ***CAUTION, FLUX RATES OFF > 10%

  PERCENT DISCREPANCY =             24.98    PERCENT DISCREPANCY =             49.26



1
 SUMMARY VOLUMETRIC BUDGET FOR GSFLOW 
 DATE: 04 28 1981              CUMULATIVE TIME STEP:     210
 MODFLOW STRESS PERIOD      1     CURRENT TIME STEP:     210     ITERATIONS:      43

 -----------------------------------------------------------------------------------

   CUMULATIVE VOLUMES               L**3   RATES FOR THIS TIME STEP           L**3/T
   ------------------                      ------------------------

                                     IN                                         IN
                                     --                                         --
        PRECIPITATION =        6.8114D+08          PRECIPITATION =                  
           STREAMFLOW =                               STREAMFLOW =                  
     GW BOUNDARY FLOW =                         GW BOUNDARY FLOW =                  


                                    OUT                                        OUT
                                    ---                                        ---
   EVAPOTRANSPIRATION =        2.1829D+08     EVAPOTRANSPIRATION =        3447573.03
           STREAMFLOW =        6.0655D+07             STREAMFLOW =         169029.37
     GW BOUNDARY FLOW =                         GW BOUNDARY FLOW =                  

   INFLOWS - OUTFLOWS =        4.0220D+08     INFLOWS - OUTFLOWS =       -3616602.41
             --------                                   --------

 TOTAL STORAGE CHANGE =        2.3541D+08         STORAGE CHANGE =       -5908423.16
       --------------                             --------------
         LAND SURFACE =        1.0063D+08           LAND SURFACE =       -4252967.25
            SOIL ZONE =        1.3232D+07              SOIL ZONE =       -1651836.00
     UNSATURATED ZONE =        2096518.74       UNSATURATED ZONE =        -108530.23
       SATURATED ZONE =       -1.4410D+07         SATURATED ZONE =         140108.12
                LAKES =        1.3387D+08                  LAKES =         -35197.82

 OVERALL BUDGET ERROR =        1.6678D+08           BUDGET ERROR =        2291820.76

  ***WARNING, CUMULATIVE VOLUME OFF > 5%
  ***CAUTION, FLUX RATES OFF > 10%

  PERCENT DISCREPANCY =             27.90    PERCENT DISCREPANCY =             48.12



1
 SUMMARY VOLUMETRIC BUDGET FOR GSFLOW 
 DATE: 05 05 1981              CUMULATIVE TIME STEP:     217
 MODFLOW STRESS PERIOD      1     CURRENT TIME STEP:     217     ITERATIONS:      39

 -----------------------------------------------------------------------------------

   CUMULATIVE VOLUMES               L**3   RATES FOR THIS TIME STEP           L**3/T
   ------------------                      ------------------------

                                     IN                                         IN
                                     --                                         --
        PRECIPITATION =        6.8811D+08          PRECIPITATION =                  
           STREAMFLOW =                               STREAMFLOW =                  
     GW BOUNDARY FLOW =                         GW BOUNDARY FLOW =                  


                                    OUT                                        OUT
                                    ---                                        ---
   EVAPOTRANSPIRATION =        2.4047D+08     EVAPOTRANSPIRATION =        2168838.99
           STREAMFLOW =        6.1872D+07             STREAMFLOW =         173796.00
     GW BOUNDARY FLOW =                         GW BOUNDARY FLOW =                  

   INFLOWS - OUTFLOWS =        3.8576D+08     INFLOWS - OUTFLOWS =       -2342634.99
             --------                                   --------

 TOTAL STORAGE CHANGE =        2.0244D+08         STORAGE CHANGE =       -4055510.06
       --------------                             --------------
         LAND SURFACE =        7.3996D+07           LAND SURFACE =       -3142859.36
            SOIL ZONE =        6670096.77              SOIL ZONE =        -907141.78
     UNSATURATED ZONE =         273204.75       UNSATURATED ZONE =        -116641.79
       SATURATED ZONE =       -1.3417D+07         SATURATED ZONE =         -39499.86
                LAKES =        1.3492D+08                  LAKES =         150632.73

 OVERALL BUDGET ERROR =        1.8332D+08           BUDGET ERROR =        1712875.07

  ***WARNING, CUMULATIVE VOLUME OFF > 5%
  ***CAUTION, FLUX RATES OFF > 10%

  PERCENT DISCREPANCY =             30.74    PERCENT DISCREPANCY =             53.54



1
 SUMMARY VOLUMETRIC BUDGET FOR GSFLOW 
 DATE: 05 12 1981              CUMULATIVE TIME STEP:     224
 MODFLOW STRESS PERIOD      1     CURRENT TIME STEP:     224     ITERATIONS:      42

 -----------------------------------------------------------------------------------

   CUMULATIVE VOLUMES               L**3   RATES FOR THIS TIME STEP           L**3/T
   ------------------                      ------------------------

                                     IN                                         IN
                                     --                                         --
        PRECIPITATION =        6.8811D+08          PRECIPITATION =                  
           STREAMFLOW =                               STREAMFLOW =                  
     GW BOUNDARY FLOW =                         GW BOUNDARY FLOW =                  


                                    OUT                                        OUT
                                    ---                                        ---
   EVAPOTRANSPIRATION =        2.5698D+08     EVAPOTRANSPIRATION =        2540227.45
           STREAMFLOW =        6.3069D+07             STREAMFLOW =         168853.17
     GW BOUNDARY FLOW =                         GW BOUNDARY FLOW =                  

   INFLOWS - OUTFLOWS =        3.6806D+08     INFLOWS - OUTFLOWS =       -2709080.62
             --------                                   --------

 TOTAL STORAGE CHANGE =        1.7184D+08         STORAGE CHANGE =       -4837278.53
       --------------                             --------------
         LAND SURFACE =        4.9094D+07           LAND SURFACE =       -3677638.49
            SOIL ZONE =         138233.88              SOIL ZONE =        -939182.13
     UNSATURATED ZONE =       -2654963.00       UNSATURATED ZONE =        -972157.29
       SATURATED ZONE =       -1.2017D+07         SATURATED ZONE =         537487.81
                LAKES =        1.3728D+08                  LAKES =         214211.56

 OVERALL BUDGET ERROR =        1.9622D+08           BUDGET ERROR =        2128197.91

  ***WARNING, CUMULATIVE VOLUME OFF > 5%
  ***CAUTION, FLUX RATES OFF > 10%

  PERCENT DISCREPANCY =             33.26    PERCENT DISCREPANCY =             56.40



1
 SUMMARY VOLUMETRIC BUDGET FOR GSFLOW 
 DATE: 05 19 1981              CUMULATIVE TIME STEP:     231
 MODFLOW STRESS PERIOD      1     CURRENT TIME STEP:     231     ITERATIONS:      39

 -----------------------------------------------------------------------------------

   CUMULATIVE VOLUMES               L**3   RATES FOR THIS TIME STEP           L**3/T
   ------------------                      ------------------------

                                     IN                                         IN
                                     --                                         --
        PRECIPITATION =        7.4671D+08          PRECIPITATION =        3447112.78
           STREAMFLOW =                               STREAMFLOW =                  
     GW BOUNDARY FLOW =                         GW BOUNDARY FLOW =                  


                                    OUT                                        OUT
                                    ---                                        ---
   EVAPOTRANSPIRATION =        2.6697D+08     EVAPOTRANSPIRATION =        1089564.53
           STREAMFLOW =        6.4259D+07             STREAMFLOW =         172527.06
     GW BOUNDARY FLOW =                         GW BOUNDARY FLOW =                  

   INFLOWS - OUTFLOWS =        4.1548D+08     INFLOWS - OUTFLOWS =        2185021.19
             --------                                   --------

 TOTAL STORAGE CHANGE =        2.1005D+08         STORAGE CHANGE =        1522425.22
       --------------                             --------------
         LAND SURFACE =        5.2560D+07           LAND SURFACE =       -3316295.82
            SOIL ZONE =        1.1096D+07              SOIL ZONE =        1981553.13
     UNSATURATED ZONE =       -2979677.03       UNSATURATED ZONE =          35886.88
       SATURATED ZONE =       -1.1744D+07         SATURATED ZONE =          57784.03
                LAKES =        1.6112D+08                  LAKES =        2763497.00

 OVERALL BUDGET ERROR =        2.0543D+08           BUDGET ERROR =         662595.97

  ***WARNING, CUMULATIVE VOLUME OFF > 5%
  ***CAUTION, FLUX RATES OFF > 10%

  PERCENT DISCREPANCY =             31.90    PERCENT DISCREPANCY =             21.27



1
 SUMMARY VOLUMETRIC BUDGET FOR GSFLOW 
 DATE: 05 26 1981              CUMULATIVE TIME STEP:     238
 MODFLOW STRESS PERIOD      1     CURRENT TIME STEP:     238     ITERATIONS:      45

 -----------------------------------------------------------------------------------

   CUMULATIVE VOLUMES               L**3   RATES FOR THIS TIME STEP           L**3/T
   ------------------                      ------------------------

                                     IN                                         IN
                                     --                                         --
        PRECIPITATION =        7.7429D+08          PRECIPITATION =        1.7236D+07
           STREAMFLOW =                               STREAMFLOW =                  
     GW BOUNDARY FLOW =                         GW BOUNDARY FLOW =                  


                                    OUT                                        OUT
                                    ---                                        ---
   EVAPOTRANSPIRATION =        2.8533D+08     EVAPOTRANSPIRATION =        1602171.60
           STREAMFLOW =        6.5461D+07             STREAMFLOW =         180466.05
     GW BOUNDARY FLOW =                         GW BOUNDARY FLOW =                  

   INFLOWS - OUTFLOWS =        4.2349D+08     INFLOWS - OUTFLOWS =        1.5453D+07
             --------                                   --------

 TOTAL STORAGE CHANGE =        2.0492D+08         STORAGE CHANGE =        1.4353D+07
       --------------                             --------------
         LAND SURFACE =        3.5549D+07           LAND SURFACE =        -311649.70
            SOIL ZONE =        9656324.25              SOIL ZONE =        4565743.97
     UNSATURATED ZONE =       -2893991.68       UNSATURATED ZONE =          58829.14
       SATURATED ZONE =       -1.1228D+07         SATURATED ZONE =         587298.88
                LAKES =        1.7383D+08                  LAKES =        9452999.00

 OVERALL BUDGET ERROR =        2.1858D+08           BUDGET ERROR =        1099704.72

  ***WARNING, CUMULATIVE VOLUME OFF > 5%
  ***WARNING, FLUX RATES OFF > 3%

  PERCENT DISCREPANCY =             32.87    PERCENT DISCREPANCY =              6.59



1
 SUMMARY VOLUMETRIC BUDGET FOR GSFLOW 
 DATE: 06 02 1981              CUMULATIVE TIME STEP:     245
 MODFLOW STRESS PERIOD      1     CURRENT TIME STEP:     245     ITERATIONS:      45

 -----------------------------------------------------------------------------------

   CUMULATIVE VOLUMES               L**3   RATES FOR THIS TIME STEP           L**3/T
   ------------------                      ------------------------

                                     IN                                         IN
                                     --                                         --
        PRECIPITATION =        7.7429D+08          PRECIPITATION =                  
           STREAMFLOW =                               STREAMFLOW =                  
     GW BOUNDARY FLOW =                         GW BOUNDARY FLOW =                  


                                    OUT                                        OUT
                                    ---                                        ---
   EVAPOTRANSPIRATION =        3.0835D+08     EVAPOTRANSPIRATION =        3073309.29
           STREAMFLOW =        6.6681D+07             STREAMFLOW =         178725.95
     GW BOUNDARY FLOW =                         GW BOUNDARY FLOW =                  

   INFLOWS - OUTFLOWS =        3.9925D+08     INFLOWS - OUTFLOWS =       -3252035.24
             --------                                   --------

 TOTAL STORAGE CHANGE =        1.6260D+08         STORAGE CHANGE =       -6089597.35
       --------------                             --------------
         LAND SURFACE =        2.1595D+07           LAND SURFACE =       -1680702.72
            SOIL ZONE =       -6170947.53              SOIL ZONE =       -1912555.31
     UNSATURATED ZONE =       -7787712.75       UNSATURATED ZONE =        -227740.74
       SATURATED ZONE =       -9587141.75         SATURATED ZONE =        -225153.58
                LAKES =        1.6455D+08                  LAKES =       -2043445.00

 OVERALL BUDGET ERROR =        2.3666D+08           BUDGET ERROR =        2837562.11

  ***WARNING, CUMULATIVE VOLUME OFF > 5%
  ***CAUTION, FLUX RATES OFF > 10%

  PERCENT DISCREPANCY =             36.08    PERCENT DISCREPANCY =             60.75



1
 SUMMARY VOLUMETRIC BUDGET FOR GSFLOW 
 DATE: 06 09 1981              CUMULATIVE TIME STEP:     252
 MODFLOW STRESS PERIOD      1     CURRENT TIME STEP:     252     ITERATIONS:      20

 -----------------------------------------------------------------------------------

   CUMULATIVE VOLUMES               L**3   RATES FOR THIS TIME STEP           L**3/T
   ------------------                      ------------------------

                                     IN                                         IN
                                     --                                         --
        PRECIPITATION =        7.7752D+08          PRECIPITATION =                  
           STREAMFLOW =                               STREAMFLOW =                  
     GW BOUNDARY FLOW =                         GW BOUNDARY FLOW =                  


                                    OUT                                        OUT
                                    ---                                        ---
   EVAPOTRANSPIRATION =        3.2785D+08     EVAPOTRANSPIRATION =        2751032.02
           STREAMFLOW =        6.7924D+07             STREAMFLOW =         203133.83
[...]
 MODFLOW STRESS PERIOD      1     CURRENT TIME STEP:    1155     ITERATIONS:      11

 -----------------------------------------------------------------------------------

   CUMULATIVE VOLUMES               L**3   RATES FOR THIS TIME STEP           L**3/T
   ------------------                      ------------------------

                                     IN                                         IN
                                     --                                         --
        PRECIPITATION =        5.5463D+09          PRECIPITATION =        6461469.31
           STREAMFLOW =                               STREAMFLOW =                  
     GW BOUNDARY FLOW =                         GW BOUNDARY FLOW =                  


                                    OUT                                        OUT
                                    ---                                        ---
   EVAPOTRANSPIRATION =        1.5449D+09     EVAPOTRANSPIRATION =         214533.61
           STREAMFLOW =        1.6169D+09             STREAMFLOW =        4966705.50
     GW BOUNDARY FLOW =                         GW BOUNDARY FLOW =                  

   INFLOWS - OUTFLOWS =        2.3844D+09     INFLOWS - OUTFLOWS =        1280230.20
             --------                                   --------

 TOTAL STORAGE CHANGE =        9.5676D+08         STORAGE CHANGE =        1121083.96
       --------------                             --------------
         LAND SURFACE =        3.3601D+08           LAND SURFACE =        4614418.78
            SOIL ZONE =        4989982.26              SOIL ZONE =         -71443.52
     UNSATURATED ZONE =       -1.4340D+07       UNSATURATED ZONE =           9662.42
       SATURATED ZONE =       -6.8234D+07         SATURATED ZONE =        -147616.47
                LAKES =        6.9834D+08                  LAKES =       -3283937.25

 OVERALL BUDGET ERROR =        1.4276D+09           BUDGET ERROR =         159146.24

  ***WARNING, CUMULATIVE VOLUME OFF > 5%

  PERCENT DISCREPANCY =             29.54    PERCENT DISCREPANCY =              2.49



1
 SUMMARY VOLUMETRIC BUDGET FOR GSFLOW 
 DATE: 12 06 1983              CUMULATIVE TIME STEP:    1162
 MODFLOW STRESS PERIOD      1     CURRENT TIME STEP:    1162     ITERATIONS:       3

 -----------------------------------------------------------------------------------

   CUMULATIVE VOLUMES               L**3   RATES FOR THIS TIME STEP           L**3/T
   ------------------                      ------------------------

                                     IN                                         IN
                                     --                                         --
        PRECIPITATION =        5.6038D+09          PRECIPITATION =        3198161.89
           STREAMFLOW =                               STREAMFLOW =                  
     GW BOUNDARY FLOW =                         GW BOUNDARY FLOW =                  


                                    OUT                                        OUT
                                    ---                                        ---
   EVAPOTRANSPIRATION =        1.5471D+09     EVAPOTRANSPIRATION =          93115.30
           STREAMFLOW =        1.6523D+09             STREAMFLOW =        5064639.00
     GW BOUNDARY FLOW =                         GW BOUNDARY FLOW =                  

   INFLOWS - OUTFLOWS =        2.4044D+09     INFLOWS - OUTFLOWS =       -1959592.41
             --------                                   --------

 TOTAL STORAGE CHANGE =        9.7476D+08         STORAGE CHANGE =       -2082760.68
       --------------                             --------------
         LAND SURFACE =        3.7453D+08           LAND SURFACE =        2297029.22
            SOIL ZONE =        5537545.86              SOIL ZONE =        -125974.84
     UNSATURATED ZONE =       -1.4046D+07       UNSATURATED ZONE =          35618.49
       SATURATED ZONE =       -6.9310D+07         SATURATED ZONE =        -165739.30
                LAKES =        6.7804D+08                  LAKES =       -4123694.25

 OVERALL BUDGET ERROR =        1.4297D+09           BUDGET ERROR =         123168.27

  ***WARNING, CUMULATIVE VOLUME OFF > 5%

  PERCENT DISCREPANCY =             29.24    PERCENT DISCREPANCY =              2.36



1
 SUMMARY VOLUMETRIC BUDGET FOR GSFLOW 
 DATE: 12 13 1983              CUMULATIVE TIME STEP:    1169
 MODFLOW STRESS PERIOD      1     CURRENT TIME STEP:    1169     ITERATIONS:      11

 -----------------------------------------------------------------------------------

   CUMULATIVE VOLUMES               L**3   RATES FOR THIS TIME STEP           L**3/T
   ------------------                      ------------------------

                                     IN                                         IN
                                     --                                         --
        PRECIPITATION =        5.6998D+09          PRECIPITATION =        9594484.95
           STREAMFLOW =                               STREAMFLOW =                  
     GW BOUNDARY FLOW =                         GW BOUNDARY FLOW =                  


                                    OUT                                        OUT
                                    ---                                        ---
   EVAPOTRANSPIRATION =        1.5492D+09     EVAPOTRANSPIRATION =         135636.01
           STREAMFLOW =        1.6893D+09             STREAMFLOW =        5260512.00
     GW BOUNDARY FLOW =                         GW BOUNDARY FLOW =                  

   INFLOWS - OUTFLOWS =        2.4613D+09     INFLOWS - OUTFLOWS =        4198336.94
             --------                                   --------

 TOTAL STORAGE CHANGE =        1.0292D+09         STORAGE CHANGE =        4046524.96
       --------------                             --------------
         LAND SURFACE =        4.3881D+08           LAND SURFACE =        7023337.24
            SOIL ZONE =        6776016.11              SOIL ZONE =        -177598.32
     UNSATURATED ZONE =       -1.3613D+07       UNSATURATED ZONE =          51964.23
       SATURATED ZONE =       -7.0048D+07         SATURATED ZONE =        -173686.69
                LAKES =        6.6728D+08                  LAKES =       -2677491.50

 OVERALL BUDGET ERROR =        1.4321D+09           BUDGET ERROR =         151811.98

  ***WARNING, CUMULATIVE VOLUME OFF > 5%

  PERCENT DISCREPANCY =             28.74    PERCENT DISCREPANCY =              1.59



1
 SUMMARY VOLUMETRIC BUDGET FOR GSFLOW 
 DATE: 12 20 1983              CUMULATIVE TIME STEP:    1176
 MODFLOW STRESS PERIOD      1     CURRENT TIME STEP:    1176     ITERATIONS:       2

 -----------------------------------------------------------------------------------

   CUMULATIVE VOLUMES               L**3   RATES FOR THIS TIME STEP           L**3/T
   ------------------                      ------------------------

                                     IN                                         IN
                                     --                                         --
        PRECIPITATION =        5.7158D+09          PRECIPITATION =                  
           STREAMFLOW =                               STREAMFLOW =                  
     GW BOUNDARY FLOW =                         GW BOUNDARY FLOW =                  


                                    OUT                                        OUT
                                    ---                                        ---
   EVAPOTRANSPIRATION =        1.5539D+09     EVAPOTRANSPIRATION =         232355.62
           STREAMFLOW =        1.7278D+09             STREAMFLOW =        5578472.50
     GW BOUNDARY FLOW =                         GW BOUNDARY FLOW =                  

   INFLOWS - OUTFLOWS =        2.4340D+09     INFLOWS - OUTFLOWS =       -5810828.12
             --------                                   --------

 TOTAL STORAGE CHANGE =        9.9850D+08         STORAGE CHANGE =       -5942265.50
       --------------                             --------------
         LAND SURFACE =        4.4222D+08           LAND SURFACE =        -213865.81
            SOIL ZONE =        7503327.10              SOIL ZONE =        -177129.62
     UNSATURATED ZONE =       -1.3227D+07       UNSATURATED ZONE =          48409.07
       SATURATED ZONE =       -7.1067D+07         SATURATED ZONE =        -186083.14
                LAKES =        6.3307D+08                  LAKES =       -5413596.00

 OVERALL BUDGET ERROR =        1.4355D+09           BUDGET ERROR =         131437.38

  ***WARNING, CUMULATIVE VOLUME OFF > 5%

  PERCENT DISCREPANCY =             28.72    PERCENT DISCREPANCY =              2.24



1
 SUMMARY VOLUMETRIC BUDGET FOR GSFLOW 
 DATE: 12 27 1983              CUMULATIVE TIME STEP:    1183
 MODFLOW STRESS PERIOD      1     CURRENT TIME STEP:    1183     ITERATIONS:       5

 -----------------------------------------------------------------------------------

   CUMULATIVE VOLUMES               L**3   RATES FOR THIS TIME STEP           L**3/T
   ------------------                      ------------------------

                                     IN                                         IN
                                     --                                         --
        PRECIPITATION =        5.8917D+09          PRECIPITATION =        9594484.95
           STREAMFLOW =                               STREAMFLOW =                  
     GW BOUNDARY FLOW =                         GW BOUNDARY FLOW =                  


                                    OUT                                        OUT
                                    ---                                        ---
   EVAPOTRANSPIRATION =        1.5553D+09     EVAPOTRANSPIRATION =         248657.70
           STREAMFLOW =        1.7668D+09             STREAMFLOW =        5677393.00
     GW BOUNDARY FLOW =                         GW BOUNDARY FLOW =                  

   INFLOWS - OUTFLOWS =        2.5695D+09     INFLOWS - OUTFLOWS =        3668434.25
             --------                                   --------

 TOTAL STORAGE CHANGE =        1.1322D+09         STORAGE CHANGE =        3435732.62
       --------------                             --------------
         LAND SURFACE =        5.6722D+08           LAND SURFACE =        5883791.66
            SOIL ZONE =        8227643.25              SOIL ZONE =         229047.84
     UNSATURATED ZONE =       -1.2882D+07       UNSATURATED ZONE =         112154.40
       SATURATED ZONE =       -7.1771D+07         SATURATED ZONE =        -101144.79
                LAKES =        6.4139D+08                  LAKES =       -2688116.50

 OVERALL BUDGET ERROR =        1.4374D+09           BUDGET ERROR =         232701.63

  ***WARNING, CUMULATIVE VOLUME OFF > 5%

  PERCENT DISCREPANCY =             27.79    PERCENT DISCREPANCY =              2.46



1
 SUMMARY VOLUMETRIC BUDGET FOR GSFLOW 
 DATE: 01 03 1984              CUMULATIVE TIME STEP:    1190
 MODFLOW STRESS PERIOD      1     CURRENT TIME STEP:    1190     ITERATIONS:       4

 -----------------------------------------------------------------------------------

   CUMULATIVE VOLUMES               L**3   RATES FOR THIS TIME STEP           L**3/T
   ------------------                      ------------------------

                                     IN                                         IN
                                     --                                         --
        PRECIPITATION =        5.9235D+09          PRECIPITATION =                  
           STREAMFLOW =                               STREAMFLOW =                  
     GW BOUNDARY FLOW =                         GW BOUNDARY FLOW =                  


                                    OUT                                        OUT
                                    ---                                        ---
   EVAPOTRANSPIRATION =        1.5592D+09     EVAPOTRANSPIRATION =         999717.57
           STREAMFLOW =        1.8064D+09             STREAMFLOW =        5603065.50
     GW BOUNDARY FLOW =                         GW BOUNDARY FLOW =                  

   INFLOWS - OUTFLOWS =        2.5578D+09     INFLOWS - OUTFLOWS =       -6602783.07
             --------                                   --------

 TOTAL STORAGE CHANGE =        1.1174D+09         STORAGE CHANGE =       -7105130.93
       --------------                             --------------
         LAND SURFACE =        5.8049D+08           LAND SURFACE =        -951131.12
            SOIL ZONE =        8937594.70              SOIL ZONE =        -188688.52
     UNSATURATED ZONE =       -1.2401D+07       UNSATURATED ZONE =          10782.02
       SATURATED ZONE =       -7.2675D+07         SATURATED ZONE =        -191621.31
                LAKES =        6.1301D+08                  LAKES =       -5784472.00

 OVERALL BUDGET ERROR =        1.4404D+09           BUDGET ERROR =         502347.86

  ***WARNING, CUMULATIVE VOLUME OFF > 5%
  ***WARNING, FLUX RATES OFF > 3%

  PERCENT DISCREPANCY =             27.68    PERCENT DISCREPANCY =              7.33



1
 SUMMARY VOLUMETRIC BUDGET FOR GSFLOW 
 DATE: 01 10 1984              CUMULATIVE TIME STEP:    1197
 MODFLOW STRESS PERIOD      1     CURRENT TIME STEP:    1197     ITERATIONS:       5

 -----------------------------------------------------------------------------------

   CUMULATIVE VOLUMES               L**3   RATES FOR THIS TIME STEP           L**3/T
   ------------------                      ------------------------

                                     IN                                         IN
                                     --                                         --
        PRECIPITATION =        5.9235D+09          PRECIPITATION =                  
           STREAMFLOW =                               STREAMFLOW =                  
     GW BOUNDARY FLOW =                         GW BOUNDARY FLOW =                  


                                    OUT                                        OUT
                                    ---                                        ---
   EVAPOTRANSPIRATION =        1.5679D+09     EVAPOTRANSPIRATION =        1194570.90
           STREAMFLOW =        1.8439D+09             STREAMFLOW =        5235933.50
     GW BOUNDARY FLOW =                         GW BOUNDARY FLOW =                  

   INFLOWS - OUTFLOWS =        2.5117D+09     INFLOWS - OUTFLOWS =       -6430504.40
             --------                                   --------

 TOTAL STORAGE CHANGE =        1.0670D+09         STORAGE CHANGE =       -7045951.56
       --------------                             --------------
         LAND SURFACE =        5.6881D+08           LAND SURFACE =       -1899310.74
            SOIL ZONE =        9906701.66              SOIL ZONE =         270285.56
     UNSATURATED ZONE =       -1.2377D+07       UNSATURATED ZONE =          11244.17
       SATURATED ZONE =       -7.3602D+07         SATURATED ZONE =         -86100.55
                LAKES =        5.7423D+08                  LAKES =       -5342070.00

 OVERALL BUDGET ERROR =        1.4447D+09           BUDGET ERROR =         615447.16

  ***WARNING, CUMULATIVE VOLUME OFF > 5%
  ***WARNING, FLUX RATES OFF > 3%

  PERCENT DISCREPANCY =             27.78    PERCENT DISCREPANCY =              9.13



1
 SUMMARY VOLUMETRIC BUDGET FOR GSFLOW 
 DATE: 01 17 1984              CUMULATIVE TIME STEP:    1204
 MODFLOW STRESS PERIOD      1     CURRENT TIME STEP:    1204     ITERATIONS:       3

 -----------------------------------------------------------------------------------

   CUMULATIVE VOLUMES               L**3   RATES FOR THIS TIME STEP           L**3/T
   ------------------                      ------------------------

                                     IN                                         IN
                                     --                                         --
        PRECIPITATION =        5.9475D+09          PRECIPITATION =                  
           STREAMFLOW =                               STREAMFLOW =                  
     GW BOUNDARY FLOW =                         GW BOUNDARY FLOW =                  


                                    OUT                                        OUT
                                    ---                                        ---
   EVAPOTRANSPIRATION =        1.5703D+09     EVAPOTRANSPIRATION =         387554.18
           STREAMFLOW =        1.8796D+09             STREAMFLOW =        5015584.50
     GW BOUNDARY FLOW =                         GW BOUNDARY FLOW =                  

   INFLOWS - OUTFLOWS =        2.4975D+09     INFLOWS - OUTFLOWS =       -5403138.68
             --------                                   --------

 TOTAL STORAGE CHANGE =        1.0512D+09         STORAGE CHANGE =       -5548387.12
       --------------                             --------------
         LAND SURFACE =        5.8433D+08           LAND SURFACE =        -355918.57
            SOIL ZONE =        8962703.89              SOIL ZONE =         -93573.92
     UNSATURATED ZONE =       -1.2310D+07       UNSATURATED ZONE =            508.59
       SATURATED ZONE =       -7.4666D+07         SATURATED ZONE =        -161560.22
                LAKES =        5.4492D+08                  LAKES =       -4937843.00

 OVERALL BUDGET ERROR =        1.4463D+09           BUDGET ERROR =         145248.44

  ***WARNING, CUMULATIVE VOLUME OFF > 5%

  PERCENT DISCREPANCY =             27.68    PERCENT DISCREPANCY =              2.65



1
 SUMMARY VOLUMETRIC BUDGET FOR GSFLOW 
 DATE: 01 24 1984              CUMULATIVE TIME STEP:    1211
 MODFLOW STRESS PERIOD      1     CURRENT TIME STEP:    1211     ITERATIONS:       4

 -----------------------------------------------------------------------------------

   CUMULATIVE VOLUMES               L**3   RATES FOR THIS TIME STEP           L**3/T
   ------------------                      ------------------------

                                     IN                                         IN
                                     --                                         --
        PRECIPITATION =        5.9535D+09          PRECIPITATION =                  
           STREAMFLOW =                               STREAMFLOW =                  
     GW BOUNDARY FLOW =                         GW BOUNDARY FLOW =                  


                                    OUT                                        OUT
                                    ---                                        ---
   EVAPOTRANSPIRATION =        1.5737D+09     EVAPOTRANSPIRATION =         632801.14
           STREAMFLOW =        1.9144D+09             STREAMFLOW =        4917690.00
     GW BOUNDARY FLOW =                         GW BOUNDARY FLOW =                  

   INFLOWS - OUTFLOWS =        2.4654D+09     INFLOWS - OUTFLOWS =       -5550491.14
             --------                                   --------

 TOTAL STORAGE CHANGE =        1.0168D+09         STORAGE CHANGE =       -6000830.71
       --------------                             --------------
         LAND SURFACE =        5.8574D+08           LAND SURFACE =        -567657.68
            SOIL ZONE =        8461677.29              SOIL ZONE =         -62910.34
     UNSATURATED ZONE =       -1.2528D+07       UNSATURATED ZONE =         -44450.22
       SATURATED ZONE =       -7.5728D+07         SATURATED ZONE =        -158131.97
                LAKES =        5.1086D+08                  LAKES =       -5167680.50

 OVERALL BUDGET ERROR =        1.4486D+09           BUDGET ERROR =         450339.57

  ***WARNING, CUMULATIVE VOLUME OFF > 5%
  ***WARNING, FLUX RATES OFF > 3%

  PERCENT DISCREPANCY =             27.70    PERCENT DISCREPANCY =              7.80



