1
 SUMMARY VOLUMETRIC BUDGET FOR GSFLOW 
 DATE: 10 07 1980              CUMULATIVE TIME STEP:       7
 MODFLOW STRESS PERIOD      1     CURRENT TIME STEP:       7     ITERATIONS:      14

 -----------------------------------------------------------------------------------

   CUMULATIVE VOLUMES               L**3   RATES FOR THIS TIME STEP           L**3/T
   ------------------                      ------------------------

                                     IN                                         IN
                                     --                                         --
        PRECIPITATION =                            PRECIPITATION =                  
           STREAMFLOW =                               STREAMFLOW =                  
     GW BOUNDARY FLOW =                         GW BOUNDARY FLOW =                  


                                    OUT                                        OUT
                                    ---                                        ---
   EVAPOTRANSPIRATION =        1.5511D+07     EVAPOTRANSPIRATION =        1478881.36
           STREAMFLOW =        1672058.77             STREAMFLOW =         183556.67
     GW BOUNDARY FLOW =                         GW BOUNDARY FLOW =                  

   INFLOWS - OUTFLOWS =       -1.7183D+07     INFLOWS - OUTFLOWS =       -1662438.03
             --------                                   --------

 TOTAL STORAGE CHANGE =       -1.7157D+07         STORAGE CHANGE =       -1664381.50
       --------------                             --------------
         LAND SURFACE =                             LAND SURFACE =                  
            SOIL ZONE =       -5762960.39              SOIL ZONE =        -270465.11
     UNSATURATED ZONE =       -1007862.74       UNSATURATED ZONE =         -54922.61
       SATURATED ZONE =       -1300626.94         SATURATED ZONE =        -269871.91
                LAKES =       -9085744.75                  LAKES =       -1069121.88

 OVERALL BUDGET ERROR =         -25985.08           BUDGET ERROR =           1943.46


  PERCENT DISCREPANCY =             -0.15    PERCENT DISCREPANCY =              0.12



1
 SUMMARY VOLUMETRIC BUDGET FOR GSFLOW 
 DATE: 10 14 1980              CUMULATIVE TIME STEP:      14
 MODFLOW STRESS PERIOD      1     CURRENT TIME STEP:      14     ITERATIONS:       3

 -----------------------------------------------------------------------------------

   CUMULATIVE VOLUMES               L**3   RATES FOR THIS TIME STEP           L**3/T
   ------------------                      ------------------------

                                     IN                                         IN
                                     --                                         --
        PRECIPITATION =        1.3442D+07          PRECIPITATION =        6721104.51
           STREAMFLOW =                               STREAMFLOW =                  
     GW BOUNDARY FLOW =                         GW BOUNDARY FLOW =                  


                                    OUT                                        OUT
                                    ---                                        ---
   EVAPOTRANSPIRATION =        2.3219D+07     EVAPOTRANSPIRATION =         507117.51
           STREAMFLOW =        2279257.54             STREAMFLOW =          34825.50
     GW BOUNDARY FLOW =                         GW BOUNDARY FLOW =                  

   INFLOWS - OUTFLOWS =       -1.2056D+07     INFLOWS - OUTFLOWS =        6179161.50
             --------                                   --------

 TOTAL STORAGE CHANGE =       -1.2123D+07         STORAGE CHANGE =        6136212.74
       --------------                             --------------
         LAND SURFACE =        2292332.54           LAND SURFACE =        1396244.76
            SOIL ZONE =         153422.96              SOIL ZONE =        3131504.30
     UNSATURATED ZONE =       -1444973.65       UNSATURATED ZONE =         -57230.40
       SATURATED ZONE =       -2729795.17         SATURATED ZONE =        -121178.67
                LAKES =       -1.0394D+07                  LAKES =        1786872.75

 OVERALL BUDGET ERROR =          66946.30           BUDGET ERROR =          42948.76


  PERCENT DISCREPANCY =              0.26    PERCENT DISCREPANCY =              0.64



1
 SUMMARY VOLUMETRIC BUDGET FOR GSFLOW 
 DATE: 10 21 1980              CUMULATIVE TIME STEP:      21
 MODFLOW STRESS PERIOD      1     CURRENT TIME STEP:      21     ITERATIONS:       3

 -----------------------------------------------------------------------------------

   CUMULATIVE VOLUMES               L**3   RATES FOR THIS TIME STEP           L**3/T
   ------------------                      ------------------------

                                     IN                                         IN
                                     --                                         --
        PRECIPITATION =        1.6803D+07          PRECIPITATION =                  
           STREAMFLOW =                               STREAMFLOW =                  
     GW BOUNDARY FLOW =                         GW BOUNDARY FLOW =                  


                                    OUT                                        OUT
                                    ---                                        ---
   EVAPOTRANSPIRATION =        3.0233D+07     EVAPOTRANSPIRATION =        1467066.03
           STREAMFLOW =        3039696.79             STREAMFLOW =         364392.81
     GW BOUNDARY FLOW =                         GW BOUNDARY FLOW =                  

   INFLOWS - OUTFLOWS =       -1.6470D+07     INFLOWS - OUTFLOWS =       -1831458.84
             --------                                   --------

 TOTAL STORAGE CHANGE =       -1.6550D+07         STORAGE CHANGE =       -1828178.06
       --------------                             --------------
         LAND SURFACE =         450933.11           LAND SURFACE =        -157820.81
            SOIL ZONE =        -328512.18              SOIL ZONE =        -679592.62
     UNSATURATED ZONE =       -1881069.97       UNSATURATED ZONE =         -58658.82
       SATURATED ZONE =       -3772063.92         SATURATED ZONE =        -158367.25
                LAKES =       -1.1019D+07                  LAKES =        -773738.56

 OVERALL BUDGET ERROR =          79955.95           BUDGET ERROR =          -3280.78


  PERCENT DISCREPANCY =              0.24    PERCENT DISCREPANCY =             -0.18



1
 SUMMARY VOLUMETRIC BUDGET FOR GSFLOW 
 DATE: 10 28 1980              CUMULATIVE TIME STEP:      28
 MODFLOW STRESS PERIOD      1     CURRENT TIME STEP:      28     ITERATIONS:       4

 -----------------------------------------------------------------------------------

   CUMULATIVE VOLUMES               L**3   RATES FOR THIS TIME STEP           L**3/T
   ------------------                      ------------------------

                                     IN                                         IN
                                     --                                         --
        PRECIPITATION =        4.0327D+07          PRECIPITATION =                  
           STREAMFLOW =                               STREAMFLOW =                  
     GW BOUNDARY FLOW =                         GW BOUNDARY FLOW =                  


                                    OUT                                        OUT
                                    ---                                        ---
   EVAPOTRANSPIRATION =        3.7280D+07     EVAPOTRANSPIRATION =         461412.22
           STREAMFLOW =        5483164.94             STREAMFLOW =         342843.84
     GW BOUNDARY FLOW =                         GW BOUNDARY FLOW =                  

   INFLOWS - OUTFLOWS =       -2436231.70     INFLOWS - OUTFLOWS =        -804256.06
             --------                                   --------

 TOTAL STORAGE CHANGE =       -3044895.62         STORAGE CHANGE =        -769323.73
       --------------                             --------------
         LAND SURFACE =        4658064.73           LAND SURFACE =        -166816.91
            SOIL ZONE =        7112344.60              SOIL ZONE =        -271772.25
     UNSATURATED ZONE =       -2174529.23       UNSATURATED ZONE =         -31871.42
       SATURATED ZONE =       -4523351.25         SATURATED ZONE =        -126025.81
                LAKES =       -8117424.46                  LAKES =        -172837.34

 OVERALL BUDGET ERROR =         608663.91           BUDGET ERROR =         -34932.33

  ***WARNING, FLUX RATES OFF > 3%

  PERCENT DISCREPANCY =              1.41    PERCENT DISCREPANCY =             -4.44



1
 SUMMARY VOLUMETRIC BUDGET FOR GSFLOW 
 DATE: 11 04 1980              CUMULATIVE TIME STEP:      35
 MODFLOW STRESS PERIOD      1     CURRENT TIME STEP:      35     ITERATIONS:       7

 -----------------------------------------------------------------------------------

   CUMULATIVE VOLUMES               L**3   RATES FOR THIS TIME STEP           L**3/T
   ------------------                      ------------------------

                                     IN                                         IN
                                     --                                         --
        PRECIPITATION =        5.0408D+07          PRECIPITATION =                  
           STREAMFLOW =                               STREAMFLOW =                  
     GW BOUNDARY FLOW =                         GW BOUNDARY FLOW =                  


                                    OUT                                        OUT
                                    ---                                        ---
   EVAPOTRANSPIRATION =        5.2114D+07     EVAPOTRANSPIRATION =        2794238.88
           STREAMFLOW =        7932063.29             STREAMFLOW =         350030.38
     GW BOUNDARY FLOW =                         GW BOUNDARY FLOW =                  

   INFLOWS - OUTFLOWS =       -9638044.88     INFLOWS - OUTFLOWS =       -3144269.25
             --------                                   --------

 TOTAL STORAGE CHANGE =       -1.0599D+07         STORAGE CHANGE =       -3149762.81
       --------------                             --------------
         LAND SURFACE =         206598.96           LAND SURFACE =         -41867.41
            SOIL ZONE =        3878929.74              SOIL ZONE =       -1780658.55
     UNSATURATED ZONE =       -2137064.42       UNSATURATED ZONE =         -46057.97
       SATURATED ZONE =       -5062768.03         SATURATED ZONE =        -247453.14
                LAKES =       -7484228.28                  LAKES =       -1033725.75

 OVERALL BUDGET ERROR =         960487.14           BUDGET ERROR =           5493.56


  PERCENT DISCREPANCY =              1.59    PERCENT DISCREPANCY =              0.17



1
 SUMMARY VOLUMETRIC BUDGET FOR GSFLOW 
 DATE: 11 11 1980              CUMULATIVE TIME STEP:      42
 MODFLOW STRESS PERIOD      1     CURRENT TIME STEP:      42     ITERATIONS:       5

 -----------------------------------------------------------------------------------

   CUMULATIVE VOLUMES               L**3   RATES FOR THIS TIME STEP           L**3/T
   ------------------                      ------------------------

                                     IN                                         IN
                                     --                                         --
        PRECIPITATION =        7.9485D+07          PRECIPITATION =        3230734.65
           STREAMFLOW =                               STREAMFLOW =                  
     GW BOUNDARY FLOW =                         GW BOUNDARY FLOW =                  


                                    OUT                                        OUT
                                    ---                                        ---
   EVAPOTRANSPIRATION =        6.9953D+07     EVAPOTRANSPIRATION =        1696113.67
           STREAMFLOW =        9809691.39             STREAMFLOW =         250092.14
     GW BOUNDARY FLOW =                         GW BOUNDARY FLOW =                  

   INFLOWS - OUTFLOWS =        -277561.88     INFLOWS - OUTFLOWS =        1284528.84
             --------                                   --------

 TOTAL STORAGE CHANGE =       -1502715.95         STORAGE CHANGE =        1148813.56
       --------------                             --------------
         LAND SURFACE =        3266569.49           LAND SURFACE =        -110998.46
            SOIL ZONE =        8678320.61              SOIL ZONE =         699212.18
     UNSATURATED ZONE =       -2168565.27       UNSATURATED ZONE =          39575.42
       SATURATED ZONE =       -5933054.19         SATURATED ZONE =         -35744.58
                LAKES =       -5345986.59                  LAKES =         556769.00

 OVERALL BUDGET ERROR =        1225154.07           BUDGET ERROR =         135715.28

  ***WARNING, FLUX RATES OFF > 3%

  PERCENT DISCREPANCY =              1.52    PERCENT DISCREPANCY =              4.29



1
 SUMMARY VOLUMETRIC BUDGET FOR GSFLOW 
 DATE: 11 18 1980              CUMULATIVE TIME STEP:      49
 MODFLOW STRESS PERIOD      1     CURRENT TIME STEP:      49     ITERATIONS:       3

 -----------------------------------------------------------------------------------

   CUMULATIVE VOLUMES               L**3   RATES FOR THIS TIME STEP           L**3/T
   ------------------                      ------------------------

                                     IN                                         IN
                                     --                                         --
        PRECIPITATION =        8.5946D+07          PRECIPITATION =                  
           STREAMFLOW =                               STREAMFLOW =                  
     GW BOUNDARY FLOW =                         GW BOUNDARY FLOW =                  


                                    OUT                                        OUT
                                    ---                                        ---
   EVAPOTRANSPIRATION =        7.6245D+07     EVAPOTRANSPIRATION =        1510955.20
           STREAMFLOW =        1.1638D+07             STREAMFLOW =         312770.31
     GW BOUNDARY FLOW =                         GW BOUNDARY FLOW =                  

   INFLOWS - OUTFLOWS =       -1937198.77     INFLOWS - OUTFLOWS =       -1823725.52
             --------                                   --------

 TOTAL STORAGE CHANGE =       -2898610.13         STORAGE CHANGE =       -1769375.53
       --------------                             --------------
         LAND SURFACE =        3785521.17           LAND SURFACE =        -428824.73
            SOIL ZONE =        8057474.90              SOIL ZONE =        -668178.83
     UNSATURATED ZONE =       -2095848.85       UNSATURATED ZONE =          19793.62
       SATURATED ZONE =       -7168064.09         SATURATED ZONE =        -170627.75
                LAKES =       -5477693.26                  LAKES =        -521537.84

 OVERALL BUDGET ERROR =         961411.37           BUDGET ERROR =         -54349.98

  ***WARNING, FLUX RATES OFF > 3%

  PERCENT DISCREPANCY =              1.09    PERCENT DISCREPANCY =             -3.03



1
 SUMMARY VOLUMETRIC BUDGET FOR GSFLOW 
 DATE: 11 25 1980              CUMULATIVE TIME STEP:      56
 MODFLOW STRESS PERIOD      1     CURRENT TIME STEP:      56     ITERATIONS:       3

 -----------------------------------------------------------------------------------

   CUMULATIVE VOLUMES               L**3   RATES FOR THIS TIME STEP           L**3/T
   ------------------                      ------------------------

                                     IN                                         IN
                                     --                                         --
        PRECIPITATION =        8.9177D+07          PRECIPITATION =                  
           STREAMFLOW =                               STREAMFLOW =                  
     GW BOUNDARY FLOW =                         GW BOUNDARY FLOW =                  


                                    OUT                                        OUT
                                    ---                                        ---
   EVAPOTRANSPIRATION =        8.3095D+07     EVAPOTRANSPIRATION =         272926.42
           STREAMFLOW =        1.4055D+07             STREAMFLOW =         437097.81
     GW BOUNDARY FLOW =                         GW BOUNDARY FLOW =                  

   INFLOWS - OUTFLOWS =       -7972266.60     INFLOWS - OUTFLOWS =        -710024.23
             --------                                   --------

 TOTAL STORAGE CHANGE =       -9016951.54         STORAGE CHANGE =        -730969.76
       --------------                             --------------
         LAND SURFACE =        3623166.05           LAND SURFACE =         -24347.90
            SOIL ZONE =        6057961.43              SOIL ZONE =        -183622.52
     UNSATURATED ZONE =       -2108552.63       UNSATURATED ZONE =         -17509.20
       SATURATED ZONE =       -8405951.32         SATURATED ZONE =        -182879.80
                LAKES =       -8183575.07                  LAKES =        -322610.34

 OVERALL BUDGET ERROR =        1044684.94           BUDGET ERROR =          20945.53


  PERCENT DISCREPANCY =              1.07    PERCENT DISCREPANCY =              2.91



1
 SUMMARY VOLUMETRIC BUDGET FOR GSFLOW 
 DATE: 12 02 1980              CUMULATIVE TIME STEP:      63
 MODFLOW STRESS PERIOD      1     CURRENT TIME STEP:      63     ITERATIONS:       4

 -----------------------------------------------------------------------------------

   CUMULATIVE VOLUMES               L**3   RATES FOR THIS TIME STEP           L**3/T
   ------------------                      ------------------------

                                     IN                                         IN
                                     --                                         --
        PRECIPITATION =        1.0846D+08          PRECIPITATION =        3198161.89
           STREAMFLOW =                               STREAMFLOW =                  
     GW BOUNDARY FLOW =                         GW BOUNDARY FLOW =                  


                                    OUT                                        OUT
                                    ---                                        ---
   EVAPOTRANSPIRATION =        9.0643D+07     EVAPOTRANSPIRATION =        1276583.94
           STREAMFLOW =        1.7318D+07             STREAMFLOW =         437214.94
     GW BOUNDARY FLOW =                         GW BOUNDARY FLOW =                  

   INFLOWS - OUTFLOWS =         502942.00     INFLOWS - OUTFLOWS =        1484363.02
             --------                                   --------

 TOTAL STORAGE CHANGE =       -1030268.42         STORAGE CHANGE =        1308289.97
       --------------                             --------------
         LAND SURFACE =        6315725.60           LAND SURFACE =       -1022199.63
            SOIL ZONE =        9942918.01              SOIL ZONE =        1753866.07
     UNSATURATED ZONE =       -1959822.94       UNSATURATED ZONE =          56595.56
       SATURATED ZONE =       -9139163.37         SATURATED ZONE =         -41997.91
                LAKES =       -6189925.73                  LAKES =         562025.88

 OVERALL BUDGET ERROR =        1533210.42           BUDGET ERROR =         176073.05

  ***WARNING, FLUX RATES OFF > 3%

  PERCENT DISCREPANCY =              1.41    PERCENT DISCREPANCY =              5.66



1
 SUMMARY VOLUMETRIC BUDGET FOR GSFLOW 
 DATE: 12 09 1980              CUMULATIVE TIME STEP:      70
 MODFLOW STRESS PERIOD      1     CURRENT TIME STEP:      70     ITERATIONS:       3

 -----------------------------------------------------------------------------------

   CUMULATIVE VOLUMES               L**3   RATES FOR THIS TIME STEP           L**3/T
   ------------------                      ------------------------

                                     IN                                         IN
                                     --                                         --
        PRECIPITATION =        1.7882D+08          PRECIPITATION =                  
           STREAMFLOW =                               STREAMFLOW =                  
     GW BOUNDARY FLOW =                         GW BOUNDARY FLOW =                  


                                    OUT                                        OUT
                                    ---                                        ---
   EVAPOTRANSPIRATION =        9.2974D+07     EVAPOTRANSPIRATION =         386685.87
           STREAMFLOW =        2.0282D+07             STREAMFLOW =         420980.56
     GW BOUNDARY FLOW =                         GW BOUNDARY FLOW =                  

   INFLOWS - OUTFLOWS =        6.5567D+07     INFLOWS - OUTFLOWS =        -807666.43
             --------                                   --------

 TOTAL STORAGE CHANGE =        6.3712D+07         STORAGE CHANGE =        -824848.23
       --------------                             --------------
         LAND SURFACE =        5.0168D+07           LAND SURFACE =        -246649.42
            SOIL ZONE =        1.3107D+07              SOIL ZONE =        -140630.34
     UNSATURATED ZONE =       -1523919.06       UNSATURATED ZONE =          40026.37
       SATURATED ZONE =       -1.0110D+07         SATURATED ZONE =        -207505.16
                LAKES =        1.2071D+07                  LAKES =        -270089.69

 OVERALL BUDGET ERROR =        1855081.91           BUDGET ERROR =          17181.80


  PERCENT DISCREPANCY =              1.04    PERCENT DISCREPANCY =              2.10



1
 SUMMARY VOLUMETRIC BUDGET FOR GSFLOW 
 DATE: 12 16 1980              CUMULATIVE TIME STEP:      77
 MODFLOW STRESS PERIOD      1     CURRENT TIME STEP:      77     ITERATIONS:       3

 -----------------------------------------------------------------------------------

   CUMULATIVE VOLUMES               L**3   RATES FOR THIS TIME STEP           L**3/T
   ------------------                      ------------------------

                                     IN                                         IN
                                     --                                         --
        PRECIPITATION =        1.7882D+08          PRECIPITATION =                  
           STREAMFLOW =                               STREAMFLOW =                  
     GW BOUNDARY FLOW =                         GW BOUNDARY FLOW =                  


                                    OUT                                        OUT
                                    ---                                        ---
   EVAPOTRANSPIRATION =        9.9447D+07     EVAPOTRANSPIRATION =        1457720.42
           STREAMFLOW =        2.3263D+07             STREAMFLOW =         430698.91
     GW BOUNDARY FLOW =                         GW BOUNDARY FLOW =                  

   INFLOWS - OUTFLOWS =        5.6114D+07     INFLOWS - OUTFLOWS =       -1888419.33
             --------                                   --------

 TOTAL STORAGE CHANGE =        5.4069D+07         STORAGE CHANGE =       -1926303.07
       --------------                             --------------
         LAND SURFACE =        4.5744D+07           LAND SURFACE =       -1259208.96
            SOIL ZONE =        1.2796D+07              SOIL ZONE =         237906.06
     UNSATURATED ZONE =       -1377837.03       UNSATURATED ZONE =          20128.61
       SATURATED ZONE =       -1.1441D+07         SATURATED ZONE =        -168638.22
                LAKES =        8347928.88                  LAKES =        -756490.56

 OVERALL BUDGET ERROR =        2044472.64           BUDGET ERROR =          37883.74


  PERCENT DISCREPANCY =              1.15    PERCENT DISCREPANCY =              1.99



1
 SUMMARY VOLUMETRIC BUDGET FOR GSFLOW 
 DATE: 12 23 1980              CUMULATIVE TIME STEP:      84
 MODFLOW STRESS PERIOD      1     CURRENT TIME STEP:      84     ITERATIONS:       3

 -----------------------------------------------------------------------------------

   CUMULATIVE VOLUMES               L**3   RATES FOR THIS TIME STEP           L**3/T
   ------------------                      ------------------------

                                     IN                                         IN
                                     --                                         --
        PRECIPITATION =        1.8522D+08          PRECIPITATION =        3198161.89
           STREAMFLOW =                               STREAMFLOW =                  
     GW BOUNDARY FLOW =                         GW BOUNDARY FLOW =                  


                                    OUT                                        OUT
                                    ---                                        ---
   EVAPOTRANSPIRATION =        1.0782D+08     EVAPOTRANSPIRATION =        1096960.74
           STREAMFLOW =        2.6316D+07             STREAMFLOW =         443565.56
     GW BOUNDARY FLOW =                         GW BOUNDARY FLOW =                  

   INFLOWS - OUTFLOWS =        5.1083D+07     INFLOWS - OUTFLOWS =        1657635.59
             --------                                   --------

 TOTAL STORAGE CHANGE =        4.8721D+07         STORAGE CHANGE =        1507717.78
       --------------                             --------------
         LAND SURFACE =        4.0221D+07           LAND SURFACE =        -367739.35
            SOIL ZONE =        1.5774D+07              SOIL ZONE =        1371225.59
     UNSATURATED ZONE =       -1092824.12       UNSATURATED ZONE =          94422.51
       SATURATED ZONE =       -1.2355D+07         SATURATED ZONE =         -80737.05
                LAKES =        6174260.53                  LAKES =         490546.09

 OVERALL BUDGET ERROR =        2362084.77           BUDGET ERROR =         149917.81

  ***WARNING, FLUX RATES OFF > 3%

  PERCENT DISCREPANCY =              1.28    PERCENT DISCREPANCY =              4.80



1
 SUMMARY VOLUMETRIC BUDGET FOR GSFLOW 
 DATE: 12 30 1980              CUMULATIVE TIME STEP:      91
 MODFLOW STRESS PERIOD      1     CURRENT TIME STEP:      91     ITERATIONS:       4

 -----------------------------------------------------------------------------------

   CUMULATIVE VOLUMES               L**3   RATES FOR THIS TIME STEP           L**3/T
   ------------------                      ------------------------

                                     IN                                         IN
                                     --                                         --
        PRECIPITATION =        1.8522D+08          PRECIPITATION =                  
           STREAMFLOW =                               STREAMFLOW =                  
     GW BOUNDARY FLOW =                         GW BOUNDARY FLOW =                  


                                    OUT                                        OUT
                                    ---                                        ---
   EVAPOTRANSPIRATION =        1.1805D+08     EVAPOTRANSPIRATION =        1240471.40
           STREAMFLOW =        2.9399D+07             STREAMFLOW =         445279.78
     GW BOUNDARY FLOW =                         GW BOUNDARY FLOW =                  

   INFLOWS - OUTFLOWS =        3.7767D+07     INFLOWS - OUTFLOWS =       -1685751.18
             --------                                   --------

 TOTAL STORAGE CHANGE =        3.5246D+07         STORAGE CHANGE =       -1698450.64
       --------------                             --------------
         LAND SURFACE =        3.3989D+07           LAND SURFACE =        -561684.68
            SOIL ZONE =        1.3820D+07              SOIL ZONE =        -403942.48
     UNSATURATED ZONE =        -774729.00       UNSATURATED ZONE =          33879.44
       SATURATED ZONE =       -1.3409D+07         SATURATED ZONE =        -163195.86
                LAKES =        1621167.69                  LAKES =        -603507.06

 OVERALL BUDGET ERROR =        2521594.68           BUDGET ERROR =          12699.46


  PERCENT DISCREPANCY =              1.37    PERCENT DISCREPANCY =              0.75



1
 SUMMARY VOLUMETRIC BUDGET FOR GSFLOW 
 DATE: 01 06 1981              CUMULATIVE TIME STEP:      98
 MODFLOW STRESS PERIOD      1     CURRENT TIME STEP:      98     ITERATIONS:      14

 -----------------------------------------------------------------------------------

   CUMULATIVE VOLUMES               L**3   RATES FOR THIS TIME STEP           L**3/T
   ------------------                      ------------------------

                                     IN                                         IN
                                     --                                         --
        PRECIPITATION =        2.0923D+08          PRECIPITATION =                  
           STREAMFLOW =                               STREAMFLOW =                  
     GW BOUNDARY FLOW =                         GW BOUNDARY FLOW =                  


                                    OUT                                        OUT
                                    ---                                        ---
   EVAPOTRANSPIRATION =        1.2563D+08     EVAPOTRANSPIRATION =        1141256.28
           STREAMFLOW =        3.2519D+07             STREAMFLOW =         445540.84
     GW BOUNDARY FLOW =                         GW BOUNDARY FLOW =                  

   INFLOWS - OUTFLOWS =        5.1081D+07     INFLOWS - OUTFLOWS =       -1586797.12
             --------                                   --------

 TOTAL STORAGE CHANGE =        4.8460D+07         STORAGE CHANGE =       -1620551.85
       --------------                             --------------
         LAND SURFACE =        3.9010D+07           LAND SURFACE =        -361344.25
            SOIL ZONE =        1.7030D+07              SOIL ZONE =        -582752.63
     UNSATURATED ZONE =        -189446.52       UNSATURATED ZONE =          81132.48
       SATURATED ZONE =       -1.3972D+07         SATURATED ZONE =        -219971.44
                LAKES =        6580764.44                  LAKES =        -537616.00

 OVERALL BUDGET ERROR =        2620816.68           BUDGET ERROR =          33754.72


  PERCENT DISCREPANCY =              1.26    PERCENT DISCREPANCY =              2.10



1
 SUMMARY VOLUMETRIC BUDGET FOR GSFLOW 
 DATE: 01 13 1981              CUMULATIVE TIME STEP:     105
 MODFLOW STRESS PERIOD      1     CURRENT TIME STEP:     105     ITERATIONS:       3

 -----------------------------------------------------------------------------------

   CUMULATIVE VOLUMES               L**3   RATES FOR THIS TIME STEP           L**3/T
   ------------------                      ------------------------

                                     IN                                         IN
                                     --                                         --
        PRECIPITATION =        2.1223D+08          PRECIPITATION =                  
           STREAMFLOW =                               STREAMFLOW =                  
     GW BOUNDARY FLOW =                         GW BOUNDARY FLOW =                  


                                    OUT                                        OUT
                                    ---                                        ---
   EVAPOTRANSPIRATION =        1.3396D+08     EVAPOTRANSPIRATION =        1403824.44
           STREAMFLOW =        3.5650D+07             STREAMFLOW =         457521.16
     GW BOUNDARY FLOW =                         GW BOUNDARY FLOW =                  

   INFLOWS - OUTFLOWS =        4.2614D+07     INFLOWS - OUTFLOWS =       -1861345.60
             --------                                   --------

 TOTAL STORAGE CHANGE =        3.9859D+07         STORAGE CHANGE =       -1870836.24
       --------------                             --------------
         LAND SURFACE =        3.7468D+07           LAND SURFACE =        -472696.86
            SOIL ZONE =        1.4431D+07              SOIL ZONE =        -520231.70
     UNSATURATED ZONE =          87664.59       UNSATURATED ZONE =          23787.04
       SATURATED ZONE =       -1.5264D+07         SATURATED ZONE =        -180159.41
                LAKES =        3136763.19                  LAKES =        -721535.31

 OVERALL BUDGET ERROR =        2755055.47           BUDGET ERROR =           9490.64


  PERCENT DISCREPANCY =              1.31    PERCENT DISCREPANCY =              0.51



1
 SUMMARY VOLUMETRIC BUDGET FOR GSFLOW 
 DATE: 01 20 1981              CUMULATIVE TIME STEP:     112
 MODFLOW STRESS PERIOD      1     CURRENT TIME STEP:     112     ITERATIONS:      12

 -----------------------------------------------------------------------------------

   CUMULATIVE VOLUMES               L**3   RATES FOR THIS TIME STEP           L**3/T
   ------------------                      ------------------------

                                     IN                                         IN
                                     --                                         --
        PRECIPITATION =        2.2423D+08          PRECIPITATION =        6001392.59
           STREAMFLOW =                               STREAMFLOW =                  
     GW BOUNDARY FLOW =                         GW BOUNDARY FLOW =                  


                                    OUT                                        OUT
                                    ---                                        ---
   EVAPOTRANSPIRATION =        1.4498D+08     EVAPOTRANSPIRATION =        1812032.75
           STREAMFLOW =        3.9241D+07             STREAMFLOW =         485521.72
     GW BOUNDARY FLOW =                         GW BOUNDARY FLOW =                  

   INFLOWS - OUTFLOWS =        4.0007D+07     INFLOWS - OUTFLOWS =        3703838.11
             --------                                   --------

 TOTAL STORAGE CHANGE =        3.7027D+07         STORAGE CHANGE =        3594716.66
       --------------                             --------------
         LAND SURFACE =        3.4618D+07           LAND SURFACE =         551847.56
            SOIL ZONE =        1.5991D+07              SOIL ZONE =        1363859.59
     UNSATURATED ZONE =         522358.89       UNSATURATED ZONE =         135779.00
       SATURATED ZONE =       -1.5904D+07         SATURATED ZONE =          85718.62
                LAKES =        1800132.52                  LAKES =        1457511.88

 OVERALL BUDGET ERROR =        2980937.00           BUDGET ERROR =         109121.46


  PERCENT DISCREPANCY =              1.34    PERCENT DISCREPANCY =              1.83



1
 SUMMARY VOLUMETRIC BUDGET FOR GSFLOW 
 DATE: 01 27 1981              CUMULATIVE TIME STEP:     119
 MODFLOW STRESS PERIOD      1     CURRENT TIME STEP:     119     ITERATIONS:      15

 -----------------------------------------------------------------------------------

   CUMULATIVE VOLUMES               L**3   RATES FOR THIS TIME STEP           L**3/T
   ------------------                      ------------------------

                                     IN                                         IN
                                     --                                         --
        PRECIPITATION =        3.3525D+08          PRECIPITATION =        6.0014D+07
           STREAMFLOW =                               STREAMFLOW =                  
     GW BOUNDARY FLOW =                         GW BOUNDARY FLOW =                  


                                    OUT                                        OUT
                                    ---                                        ---
   EVAPOTRANSPIRATION =        1.5407D+08     EVAPOTRANSPIRATION =         663125.29
           STREAMFLOW =        4.1752D+07             STREAMFLOW =         345811.31
     GW BOUNDARY FLOW =                         GW BOUNDARY FLOW =                  

   INFLOWS - OUTFLOWS =        1.3943D+08     INFLOWS - OUTFLOWS =        5.9005D+07
             --------                                   --------

 TOTAL STORAGE CHANGE =        1.3631D+08         STORAGE CHANGE =        5.8966D+07
       --------------                             --------------
         LAND SURFACE =        1.0380D+08           LAND SURFACE =        4.0704D+07
            SOIL ZONE =        1.8074D+07              SOIL ZONE =        1754160.26
     UNSATURATED ZONE =        1201226.15       UNSATURATED ZONE =         120399.10
       SATURATED ZONE =       -1.6481D+07         SATURATED ZONE =          78805.81
                LAKES =        2.9715D+07                  LAKES =        1.6308D+07

 OVERALL BUDGET ERROR =        3123802.73           BUDGET ERROR =          38881.82


  PERCENT DISCREPANCY =              0.94    PERCENT DISCREPANCY =              0.06



1
 SUMMARY VOLUMETRIC BUDGET FOR GSFLOW 
 DATE: 02 03 1981              CUMULATIVE TIME STEP:     126
 MODFLOW STRESS PERIOD      1     CURRENT TIME STEP:     126     ITERATIONS:      21

 -----------------------------------------------------------------------------------

   CUMULATIVE VOLUMES               L**3   RATES FOR THIS TIME STEP           L**3/T
   ------------------                      ------------------------

                                     IN                                         IN
                                     --                                         --
        PRECIPITATION =        4.0137D+08          PRECIPITATION =                  
           STREAMFLOW =                               STREAMFLOW =                  
     GW BOUNDARY FLOW =                         GW BOUNDARY FLOW =                  


                                    OUT                                        OUT
                                    ---                                        ---
   EVAPOTRANSPIRATION =        1.5769D+08     EVAPOTRANSPIRATION =         897749.75
           STREAMFLOW =        4.4232D+07             STREAMFLOW =         354891.78
     GW BOUNDARY FLOW =                         GW BOUNDARY FLOW =                  

   INFLOWS - OUTFLOWS =        1.9944D+08     INFLOWS - OUTFLOWS =       -1252641.53
             --------                                   --------

 TOTAL STORAGE CHANGE =        1.9654D+08         STORAGE CHANGE =       -1277460.49
       --------------                             --------------
         LAND SURFACE =        1.5000D+08           LAND SURFACE =        -514046.87
            SOIL ZONE =        1.7075D+07              SOIL ZONE =        -141383.33
     UNSATURATED ZONE =        1624570.69       UNSATURATED ZONE =          30791.21
       SATURATED ZONE =       -1.7719D+07         SATURATED ZONE =        -175666.81
                LAKES =        4.5560D+07                  LAKES =        -477154.69

 OVERALL BUDGET ERROR =        2906050.67           BUDGET ERROR =          24818.96


  PERCENT DISCREPANCY =              0.73    PERCENT DISCREPANCY =              1.96



1
 SUMMARY VOLUMETRIC BUDGET FOR GSFLOW 
 DATE: 02 10 1981              CUMULATIVE TIME STEP:     133
 MODFLOW STRESS PERIOD      1     CURRENT TIME STEP:     133     ITERATIONS:       3

 -----------------------------------------------------------------------------------

   CUMULATIVE VOLUMES               L**3   RATES FOR THIS TIME STEP           L**3/T
   ------------------                      ------------------------

                                     IN                                         IN
                                     --                                         --
        PRECIPITATION =        4.1375D+08          PRECIPITATION =        3095932.43
           STREAMFLOW =                               STREAMFLOW =                  
     GW BOUNDARY FLOW =                         GW BOUNDARY FLOW =                  


                                    OUT                                        OUT
                                    ---                                        ---
   EVAPOTRANSPIRATION =        1.6309D+08     EVAPOTRANSPIRATION =         577879.06
           STREAMFLOW =        4.6626D+07             STREAMFLOW =         340304.91
     GW BOUNDARY FLOW =                         GW BOUNDARY FLOW =                  

   INFLOWS - OUTFLOWS =        2.0403D+08     INFLOWS - OUTFLOWS =        2177748.46
             --------                                   --------

 TOTAL STORAGE CHANGE =        2.0099D+08         STORAGE CHANGE =        2149986.10
       --------------                             --------------
         LAND SURFACE =        1.5542D+08           LAND SURFACE =        1647975.48
            SOIL ZONE =        1.6988D+07              SOIL ZONE =         193620.65
     UNSATURATED ZONE =        1701795.14       UNSATURATED ZONE =           8209.02
       SATURATED ZONE =       -1.8826D+07         SATURATED ZONE =        -150562.55
                LAKES =        4.5711D+07                  LAKES =         450743.50

 OVERALL BUDGET ERROR =        3043502.82           BUDGET ERROR =          27762.37


  PERCENT DISCREPANCY =              0.74    PERCENT DISCREPANCY =              0.90



1
 SUMMARY VOLUMETRIC BUDGET FOR GSFLOW 
 DATE: 02 17 1981              CUMULATIVE TIME STEP:     140
 MODFLOW STRESS PERIOD      1     CURRENT TIME STEP:     140     ITERATIONS:      32

 -----------------------------------------------------------------------------------

   CUMULATIVE VOLUMES               L**3   RATES FOR THIS TIME STEP           L**3/T
   ------------------                      ------------------------

                                     IN                                         IN
                                     --                                         --
        PRECIPITATION =        4.6328D+08          PRECIPITATION =                  
           STREAMFLOW =                               STREAMFLOW =                  
     GW BOUNDARY FLOW =                         GW BOUNDARY FLOW =                  


                                    OUT                                        OUT
                                    ---                                        ---
   EVAPOTRANSPIRATION =        1.7438D+08     EVAPOTRANSPIRATION =        2612618.77
           STREAMFLOW =        4.8976D+07             STREAMFLOW =         285389.16
     GW BOUNDARY FLOW =                         GW BOUNDARY FLOW =                  

   INFLOWS - OUTFLOWS =        2.3992D+08     INFLOWS - OUTFLOWS =       -2898007.93
             --------                                   --------

 TOTAL STORAGE CHANGE =        2.3625D+08         STORAGE CHANGE =       -2957890.23
       --------------                             --------------
         LAND SURFACE =        1.6983D+08           LAND SURFACE =       -2316327.39
            SOIL ZONE =        2.3847D+07              SOIL ZONE =         -56463.12
     UNSATURATED ZONE =        2735785.17       UNSATURATED ZONE =         187345.03
       SATURATED ZONE =       -1.8916D+07         SATURATED ZONE =        -127188.06
                LAKES =        5.8755D+07                  LAKES =        -645256.69

 OVERALL BUDGET ERROR =        3668335.31           BUDGET ERROR =          59882.30


  PERCENT DISCREPANCY =              0.79    PERCENT DISCREPANCY =              2.05



1
 SUMMARY VOLUMETRIC BUDGET FOR GSFLOW 
 DATE: 02 24 1981              CUMULATIVE TIME STEP:     147
 MODFLOW STRESS PERIOD      1     CURRENT TIME STEP:     147     ITERATIONS:      15

 -----------------------------------------------------------------------------------

   CUMULATIVE VOLUMES               L**3   RATES FOR THIS TIME STEP           L**3/T
   ------------------                      ------------------------

                                     IN                                         IN
                                     --                                         --
        PRECIPITATION =        4.8805D+08          PRECIPITATION =        1.8576D+07
           STREAMFLOW =                               STREAMFLOW =                  
     GW BOUNDARY FLOW =                         GW BOUNDARY FLOW =                  


                                    OUT                                        OUT
                                    ---                                        ---
   EVAPOTRANSPIRATION =        1.8775D+08     EVAPOTRANSPIRATION =        1355053.68
           STREAMFLOW =        5.0060D+07             STREAMFLOW =         143123.89
     GW BOUNDARY FLOW =                         GW BOUNDARY FLOW =                  

   INFLOWS - OUTFLOWS =        2.5024D+08     INFLOWS - OUTFLOWS =        1.7077D+07
             --------                                   --------

 TOTAL STORAGE CHANGE =        2.4610D+08         STORAGE CHANGE =        1.7033D+07
       --------------                             --------------
         LAND SURFACE =        1.6962D+08           LAND SURFACE =        1.0824D+07
            SOIL ZONE =        2.6076D+07              SOIL ZONE =         470164.41
     UNSATURATED ZONE =        1558566.86       UNSATURATED ZONE =         343297.55
       SATURATED ZONE =       -1.7097D+07         SATURATED ZONE =          48394.12
                LAKES =        6.5946D+07                  LAKES =        5347474.50

 OVERALL BUDGET ERROR =        4138931.83           BUDGET ERROR =          44346.90


  PERCENT DISCREPANCY =              0.85    PERCENT DISCREPANCY =              0.24



1
 SUMMARY VOLUMETRIC BUDGET FOR GSFLOW 
 DATE: 03 03 1981              CUMULATIVE TIME STEP:     154
 MODFLOW STRESS PERIOD      1     CURRENT TIME STEP:     154     ITERATIONS:      16

 -----------------------------------------------------------------------------------

   CUMULATIVE VOLUMES               L**3   RATES FOR THIS TIME STEP           L**3/T
   ------------------                      ------------------------

                                     IN                                         IN
                                     --                                         --
        PRECIPITATION =        5.0056D+08          PRECIPITATION =                  
           STREAMFLOW =                               STREAMFLOW =                  
     GW BOUNDARY FLOW =                         GW BOUNDARY FLOW =                  


                                    OUT                                        OUT
                                    ---                                        ---
   EVAPOTRANSPIRATION =        1.9627D+08     EVAPOTRANSPIRATION =        2160699.05
           STREAMFLOW =        5.1106D+07             STREAMFLOW =         161574.77
     GW BOUNDARY FLOW =                         GW BOUNDARY FLOW =                  

   INFLOWS - OUTFLOWS =        2.5319D+08     INFLOWS - OUTFLOWS =       -2322273.81
             --------                                   --------

 TOTAL STORAGE CHANGE =        2.4887D+08         STORAGE CHANGE =       -2345352.25
       --------------                             --------------
         LAND SURFACE =        1.7232D+08           LAND SURFACE =       -1112915.94
            SOIL ZONE =        2.4192D+07              SOIL ZONE =        -375976.21
     UNSATURATED ZONE =        2526219.21       UNSATURATED ZONE =          66143.96
       SATURATED ZONE =       -1.8334D+07         SATURATED ZONE =        -179127.62
                LAKES =        6.8164D+07                  LAKES =        -743476.44

 OVERALL BUDGET ERROR =        4316491.26           BUDGET ERROR =          23078.44


  PERCENT DISCREPANCY =              0.87    PERCENT DISCREPANCY =              0.99



1
 SUMMARY VOLUMETRIC BUDGET FOR GSFLOW 
 DATE: 03 10 1981              CUMULATIVE TIME STEP:     161
 MODFLOW STRESS PERIOD      1     CURRENT TIME STEP:     161     ITERATIONS:      42

 -----------------------------------------------------------------------------------

   CUMULATIVE VOLUMES               L**3   RATES FOR THIS TIME STEP           L**3/T
   ------------------                      ------------------------

                                     IN                                         IN
                                     --                                         --
        PRECIPITATION =        5.0378D+08          PRECIPITATION =        3221591.34
           STREAMFLOW =                               STREAMFLOW =                  
     GW BOUNDARY FLOW =                         GW BOUNDARY FLOW =                  


                                    OUT                                        OUT
                                    ---                                        ---
   EVAPOTRANSPIRATION =        2.1334D+08     EVAPOTRANSPIRATION =        1910880.83
           STREAMFLOW =        5.2250D+07             STREAMFLOW =         163871.41
     GW BOUNDARY FLOW =                         GW BOUNDARY FLOW =                  

   INFLOWS - OUTFLOWS =        2.3819D+08     INFLOWS - OUTFLOWS =        1146839.10
             --------                                   --------

 TOTAL STORAGE CHANGE =        2.3366D+08         STORAGE CHANGE =        1113720.66
       --------------                             --------------
         LAND SURFACE =        1.5960D+08           LAND SURFACE =       -1847354.72
            SOIL ZONE =        2.4732D+07              SOIL ZONE =        1270302.36
     UNSATURATED ZONE =        2988865.10       UNSATURATED ZONE =         158857.13
       SATURATED ZONE =       -1.8856D+07         SATURATED ZONE =         135916.02
                LAKES =        6.5192D+07                  LAKES =        1395999.88

 OVERALL BUDGET ERROR =        4530052.91           BUDGET ERROR =          33118.43


  PERCENT DISCREPANCY =              0.90    PERCENT DISCREPANCY =              1.03



1
 SUMMARY VOLUMETRIC BUDGET FOR GSFLOW 
 DATE: 03 17 1981              CUMULATIVE TIME STEP:     168
 MODFLOW STRESS PERIOD      1     CURRENT TIME STEP:     168     ITERATIONS:      33

 -----------------------------------------------------------------------------------

   CUMULATIVE VOLUMES               L**3   RATES FOR THIS TIME STEP           L**3/T
   ------------------                      ------------------------

                                     IN                                         IN
                                     --                                         --
        PRECIPITATION =        5.1345D+08          PRECIPITATION =        3221591.34
           STREAMFLOW =                               STREAMFLOW =                  
     GW BOUNDARY FLOW =                         GW BOUNDARY FLOW =                  


                                    OUT                                        OUT
                                    ---                                        ---
   EVAPOTRANSPIRATION =        2.2791D+08     EVAPOTRANSPIRATION =        1041970.12
           STREAMFLOW =        5.3446D+07             STREAMFLOW =         174561.34
     GW BOUNDARY FLOW =                         GW BOUNDARY FLOW =                  

   INFLOWS - OUTFLOWS =        2.3209D+08     INFLOWS - OUTFLOWS =        2005059.87
             --------                                   --------

 TOTAL STORAGE CHANGE =        2.2741D+08         STORAGE CHANGE =        1979818.14
       --------------                             --------------
         LAND SURFACE =        1.5550D+08           LAND SURFACE =        1505005.03
            SOIL ZONE =        2.3801D+07              SOIL ZONE =          25483.45
     UNSATURATED ZONE =        3582418.70       UNSATURATED ZONE =        -103495.84
       SATURATED ZONE =       -1.9576D+07         SATURATED ZONE =           1908.31
                LAKES =        6.4108D+07                  LAKES =         550917.19

 OVERALL BUDGET ERROR =        4678162.56           BUDGET ERROR =          25241.73


  PERCENT DISCREPANCY =              0.92    PERCENT DISCREPANCY =              0.79



1
 SUMMARY VOLUMETRIC BUDGET FOR GSFLOW 
 DATE: 03 24 1981              CUMULATIVE TIME STEP:     175
 MODFLOW STRESS PERIOD      1     CURRENT TIME STEP:     175     ITERATIONS:      21

 -----------------------------------------------------------------------------------

   CUMULATIVE VOLUMES               L**3   RATES FOR THIS TIME STEP           L**3/T
   ------------------                      ------------------------

                                     IN                                         IN
                                     --                                         --
        PRECIPITATION =        5.7144D+08          PRECIPITATION =        6443182.67
           STREAMFLOW =                               STREAMFLOW =                  
     GW BOUNDARY FLOW =                         GW BOUNDARY FLOW =                  


                                    OUT                                        OUT
                                    ---                                        ---
   EVAPOTRANSPIRATION =        2.4182D+08     EVAPOTRANSPIRATION =        1710095.73
           STREAMFLOW =        5.4582D+07             STREAMFLOW =         164598.83
     GW BOUNDARY FLOW =                         GW BOUNDARY FLOW =                  

   INFLOWS - OUTFLOWS =        2.7504D+08     INFLOWS - OUTFLOWS =        4568488.11
             --------                                   --------

 TOTAL STORAGE CHANGE =        2.7010D+08         STORAGE CHANGE =        4529880.75
       --------------                             --------------
         LAND SURFACE =        1.8290D+08           LAND SURFACE =        1419532.70
            SOIL ZONE =        2.6095D+07              SOIL ZONE =         785255.68
     UNSATURATED ZONE =        4502952.84       UNSATURATED ZONE =         179240.71
       SATURATED ZONE =       -2.0015D+07         SATURATED ZONE =          90683.41
                LAKES =        7.6623D+07                  LAKES =        2055168.25

 OVERALL BUDGET ERROR =        4935025.82           BUDGET ERROR =          38607.36


  PERCENT DISCREPANCY =              0.87    PERCENT DISCREPANCY =              0.60



1
 SUMMARY VOLUMETRIC BUDGET FOR GSFLOW 
 DATE: 03 31 1981              CUMULATIVE TIME STEP:     182
 MODFLOW STRESS PERIOD      1     CURRENT TIME STEP:     182     ITERATIONS:      28

 -----------------------------------------------------------------------------------

   CUMULATIVE VOLUMES               L**3   RATES FOR THIS TIME STEP           L**3/T
   ------------------                      ------------------------

                                     IN                                         IN
                                     --                                         --
        PRECIPITATION =        6.3587D+08          PRECIPITATION =        6443182.67
           STREAMFLOW =                               STREAMFLOW =                  
     GW BOUNDARY FLOW =                         GW BOUNDARY FLOW =                  


                                    OUT                                        OUT
                                    ---                                        ---
   EVAPOTRANSPIRATION =        2.5632D+08     EVAPOTRANSPIRATION =        1135698.74
           STREAMFLOW =        5.5754D+07             STREAMFLOW =         154066.59
     GW BOUNDARY FLOW =                         GW BOUNDARY FLOW =                  

   INFLOWS - OUTFLOWS =        3.2380D+08     INFLOWS - OUTFLOWS =        5153417.34
             --------                                   --------

 TOTAL STORAGE CHANGE =        3.1886D+08         STORAGE CHANGE =        5114092.33
       --------------                             --------------
         LAND SURFACE =        2.0791D+08           LAND SURFACE =        2593093.23
            SOIL ZONE =        2.7738D+07              SOIL ZONE =         491071.89
     UNSATURATED ZONE =        1373927.55       UNSATURATED ZONE =         179615.35
       SATURATED ZONE =       -1.6478D+07         SATURATED ZONE =         -32483.52
                LAKES =        9.8313D+07                  LAKES =        1882795.38

 OVERALL BUDGET ERROR =        4936624.18           BUDGET ERROR =          39325.01


  PERCENT DISCREPANCY =              0.78    PERCENT DISCREPANCY =              0.61



1
 SUMMARY VOLUMETRIC BUDGET FOR GSFLOW 
 DATE: 04 07 1981              CUMULATIVE TIME STEP:     189
 MODFLOW STRESS PERIOD      1     CURRENT TIME STEP:     189     ITERATIONS:      49

 -----------------------------------------------------------------------------------

   CUMULATIVE VOLUMES               L**3   RATES FOR THIS TIME STEP           L**3/T
   ------------------                      ------------------------

                                     IN                                         IN
                                     --                                         --
        PRECIPITATION =        6.5328D+08          PRECIPITATION =                  
           STREAMFLOW =                               STREAMFLOW =                  
     GW BOUNDARY FLOW =                         GW BOUNDARY FLOW =                  


                                    OUT                                        OUT
                                    ---                                        ---
   EVAPOTRANSPIRATION =        2.7945D+08     EVAPOTRANSPIRATION =        4247288.65
           STREAMFLOW =        5.6884D+07             STREAMFLOW =         203682.59
     GW BOUNDARY FLOW =                         GW BOUNDARY FLOW =                  

   INFLOWS - OUTFLOWS =        3.1695D+08     INFLOWS - OUTFLOWS =       -4450971.25
             --------                                   --------

 TOTAL STORAGE CHANGE =        3.1174D+08         STORAGE CHANGE =       -4477193.90
       --------------                             --------------
         LAND SURFACE =        1.8629D+08           LAND SURFACE =       -6808849.76
            SOIL ZONE =        2.8275D+07              SOIL ZONE =         -13007.00
     UNSATURATED ZONE =        3312993.75       UNSATURATED ZONE =         340092.46
       SATURATED ZONE =       -1.5186D+07         SATURATED ZONE =         293819.78
                LAKES =        1.0904D+08                  LAKES =        1710750.62

 OVERALL BUDGET ERROR =        5210655.39           BUDGET ERROR =          26222.65


  PERCENT DISCREPANCY =              0.80    PERCENT DISCREPANCY =              0.59



1
 SUMMARY VOLUMETRIC BUDGET FOR GSFLOW 
 DATE: 04 14 1981              CUMULATIVE TIME STEP:     196
 MODFLOW STRESS PERIOD      1     CURRENT TIME STEP:     196     ITERATIONS:      37

 -----------------------------------------------------------------------------------

   CUMULATIVE VOLUMES               L**3   RATES FOR THIS TIME STEP           L**3/T
   ------------------                      ------------------------

                                     IN                                         IN
                                     --                                         --
        PRECIPITATION =        6.5328D+08          PRECIPITATION =                  
           STREAMFLOW =                               STREAMFLOW =                  
     GW BOUNDARY FLOW =                         GW BOUNDARY FLOW =                  


                                    OUT                                        OUT
                                    ---                                        ---
   EVAPOTRANSPIRATION =        3.0927D+08     EVAPOTRANSPIRATION =        5170981.09
           STREAMFLOW =        5.8130D+07             STREAMFLOW =         172000.22
     GW BOUNDARY FLOW =                         GW BOUNDARY FLOW =                  

   INFLOWS - OUTFLOWS =        2.8588D+08     INFLOWS - OUTFLOWS =       -5342981.31
             --------                                   --------

 TOTAL STORAGE CHANGE =        2.8047D+08         STORAGE CHANGE =       -5365275.11
       --------------                             --------------
         LAND SURFACE =        1.4105D+08           LAND SURFACE =       -7353371.52
            SOIL ZONE =        2.3823D+07              SOIL ZONE =        -905528.24
     UNSATURATED ZONE =        5310032.18       UNSATURATED ZONE =         248576.30
       SATURATED ZONE =       -1.3530D+07         SATURATED ZONE =         268812.59
                LAKES =        1.2382D+08                  LAKES =        2376235.75

 OVERALL BUDGET ERROR =        5407409.00           BUDGET ERROR =          22293.80


  PERCENT DISCREPANCY =              0.83    PERCENT DISCREPANCY =              0.42



1
 SUMMARY VOLUMETRIC BUDGET FOR GSFLOW 
 DATE: 04 21 1981              CUMULATIVE TIME STEP:     203
 MODFLOW STRESS PERIOD      1     CURRENT TIME STEP:     203     ITERATIONS:      53

 -----------------------------------------------------------------------------------

   CUMULATIVE VOLUMES               L**3   RATES FOR THIS TIME STEP           L**3/T
   ------------------                      ------------------------

                                     IN                                         IN
                                     --                                         --
        PRECIPITATION =        6.7418D+08          PRECIPITATION =                  
           STREAMFLOW =                               STREAMFLOW =                  
     GW BOUNDARY FLOW =                         GW BOUNDARY FLOW =                  


                                    OUT                                        OUT
                                    ---                                        ---
   EVAPOTRANSPIRATION =        3.3937D+08     EVAPOTRANSPIRATION =        5676348.57
           STREAMFLOW =        5.9345D+07             STREAMFLOW =         169579.17
     GW BOUNDARY FLOW =                         GW BOUNDARY FLOW =                  

   INFLOWS - OUTFLOWS =        2.7546D+08     INFLOWS - OUTFLOWS =       -5845927.74
             --------                                   --------

 TOTAL STORAGE CHANGE =        2.7011D+08         STORAGE CHANGE =       -5861086.48
       --------------                             --------------
         LAND SURFACE =        1.1854D+08           LAND SURFACE =       -3228226.29
            SOIL ZONE =        2.1951D+07              SOIL ZONE =       -2078812.23
     UNSATURATED ZONE =        6411693.13       UNSATURATED ZONE =          91425.48
       SATURATED ZONE =       -1.3332D+07         SATURATED ZONE =         -37105.62
                LAKES =        1.3654D+08                  LAKES =        -608367.81

 OVERALL BUDGET ERROR =        5351213.10           BUDGET ERROR =          15158.74


  PERCENT DISCREPANCY =              0.80    PERCENT DISCREPANCY =              0.26



1
 SUMMARY VOLUMETRIC BUDGET FOR GSFLOW 
 DATE: 04 28 1981              CUMULATIVE TIME STEP:     210
 MODFLOW STRESS PERIOD      1     CURRENT TIME STEP:     210     ITERATIONS:      47

 -----------------------------------------------------------------------------------

   CUMULATIVE VOLUMES               L**3   RATES FOR THIS TIME STEP           L**3/T
   ------------------                      ------------------------

                                     IN                                         IN
                                     --                                         --
        PRECIPITATION =        6.8114D+08          PRECIPITATION =                  
           STREAMFLOW =                               STREAMFLOW =                  
     GW BOUNDARY FLOW =                         GW BOUNDARY FLOW =                  


                                    OUT                                        OUT
                                    ---                                        ---
   EVAPOTRANSPIRATION =        3.8077D+08     EVAPOTRANSPIRATION =        5632411.39
           STREAMFLOW =        6.0557D+07             STREAMFLOW =         169029.37
     GW BOUNDARY FLOW =                         GW BOUNDARY FLOW =                  

   INFLOWS - OUTFLOWS =        2.3982D+08     INFLOWS - OUTFLOWS =       -5801440.77
             --------                                   --------

 TOTAL STORAGE CHANGE =        2.3443D+08         STORAGE CHANGE =       -5808750.87
       --------------                             --------------
         LAND SURFACE =        9.3061D+07           LAND SURFACE =       -4036144.09
            SOIL ZONE =        1.1922D+07              SOIL ZONE =       -1674237.56
     UNSATURATED ZONE =        6487704.13       UNSATURATED ZONE =         -36630.34
       SATURATED ZONE =       -1.3190D+07         SATURATED ZONE =         113926.97
                LAKES =        1.3615D+08                  LAKES =        -175665.84

 OVERALL BUDGET ERROR =        5382593.36           BUDGET ERROR =           7310.10


  PERCENT DISCREPANCY =              0.79    PERCENT DISCREPANCY =              0.13



1
 SUMMARY VOLUMETRIC BUDGET FOR GSFLOW 
 DATE: 05 05 1981              CUMULATIVE TIME STEP:     217
 MODFLOW STRESS PERIOD      1     CURRENT TIME STEP:     217     ITERATIONS:      69

 -----------------------------------------------------------------------------------

   CUMULATIVE VOLUMES               L**3   RATES FOR THIS TIME STEP           L**3/T
   ------------------                      ------------------------

                                     IN                                         IN
                                     --                                         --
        PRECIPITATION =        6.8811D+08          PRECIPITATION =                  
           STREAMFLOW =                               STREAMFLOW =                  
     GW BOUNDARY FLOW =                         GW BOUNDARY FLOW =                  


                                    OUT                                        OUT
                                    ---                                        ---
   EVAPOTRANSPIRATION =        4.1880D+08     EVAPOTRANSPIRATION =        3777346.47
           STREAMFLOW =        6.1775D+07             STREAMFLOW =         173796.00
     GW BOUNDARY FLOW =                         GW BOUNDARY FLOW =                  

   INFLOWS - OUTFLOWS =        2.0754D+08     INFLOWS - OUTFLOWS =       -3951142.47
             --------                                   --------

 TOTAL STORAGE CHANGE =        2.0214D+08         STORAGE CHANGE =       -3950146.48
       --------------                             --------------
         LAND SURFACE =        6.7797D+07           LAND SURFACE =       -2954584.90
            SOIL ZONE =        5253751.98              SOIL ZONE =        -920964.03
     UNSATURATED ZONE =        5121640.63       UNSATURATED ZONE =         -70832.36
       SATURATED ZONE =       -1.2256D+07         SATURATED ZONE =         -12611.36
                LAKES =        1.3622D+08                  LAKES =           8846.16

 OVERALL BUDGET ERROR =        5396823.31           BUDGET ERROR =           -995.98


  PERCENT DISCREPANCY =              0.79    PERCENT DISCREPANCY =             -0.03



1
 SUMMARY VOLUMETRIC BUDGET FOR GSFLOW 
 DATE: 05 12 1981              CUMULATIVE TIME STEP:     224
 MODFLOW STRESS PERIOD      1     CURRENT TIME STEP:     224     ITERATIONS:      62

 -----------------------------------------------------------------------------------

   CUMULATIVE VOLUMES               L**3   RATES FOR THIS TIME STEP           L**3/T
   ------------------                      ------------------------

                                     IN                                         IN
                                     --                                         --
        PRECIPITATION =        6.8811D+08          PRECIPITATION =                  
           STREAMFLOW =                               STREAMFLOW =                  
     GW BOUNDARY FLOW =                         GW BOUNDARY FLOW =                  


                                    OUT                                        OUT
                                    ---                                        ---
   EVAPOTRANSPIRATION =        4.4716D+08     EVAPOTRANSPIRATION =        4487476.14
           STREAMFLOW =        6.2972D+07             STREAMFLOW =         168853.17
     GW BOUNDARY FLOW =                         GW BOUNDARY FLOW =                  

   INFLOWS - OUTFLOWS =        1.7798D+08     INFLOWS - OUTFLOWS =       -4656329.31
             --------                                   --------

 TOTAL STORAGE CHANGE =        1.7258D+08         STORAGE CHANGE =       -4651715.62
       --------------                             --------------
         LAND SURFACE =        4.4652D+07           LAND SURFACE =       -3401591.14
            SOIL ZONE =       -1386590.93              SOIL ZONE =        -952960.76
     UNSATURATED ZONE =        2960648.11       UNSATURATED ZONE =        -839266.56
       SATURATED ZONE =       -1.0895D+07         SATURATED ZONE =         540076.75
                LAKES =        1.3725D+08                  LAKES =           2026.09

 OVERALL BUDGET ERROR =        5400465.03           BUDGET ERROR =          -4613.69


  PERCENT DISCREPANCY =              0.79    PERCENT DISCREPANCY =             -0.10



1
 SUMMARY VOLUMETRIC BUDGET FOR GSFLOW 
 DATE: 05 19 1981              CUMULATIVE TIME STEP:     231
 MODFLOW STRESS PERIOD      1     CURRENT TIME STEP:     231     ITERATIONS:      43

 -----------------------------------------------------------------------------------

   CUMULATIVE VOLUMES               L**3   RATES FOR THIS TIME STEP           L**3/T
   ------------------                      ------------------------

                                     IN                                         IN
                                     --                                         --
        PRECIPITATION =        7.4671D+08          PRECIPITATION =        3447112.78
           STREAMFLOW =                               STREAMFLOW =                  
     GW BOUNDARY FLOW =                         GW BOUNDARY FLOW =                  


                                    OUT                                        OUT
                                    ---                                        ---
   EVAPOTRANSPIRATION =        4.6525D+08     EVAPOTRANSPIRATION =        1758654.34
           STREAMFLOW =        6.4162D+07             STREAMFLOW =         172527.06
     GW BOUNDARY FLOW =                         GW BOUNDARY FLOW =                  

   INFLOWS - OUTFLOWS =        2.1730D+08     INFLOWS - OUTFLOWS =        1515931.38
             --------                                   --------

 TOTAL STORAGE CHANGE =        2.1214D+08         STORAGE CHANGE =        1513824.60
       --------------                             --------------
         LAND SURFACE =        4.8302D+07           LAND SURFACE =       -3469349.29
            SOIL ZONE =        1.0092D+07              SOIL ZONE =        2136496.30
     UNSATURATED ZONE =        2780482.79       UNSATURATED ZONE =         -16802.90
       SATURATED ZONE =       -1.0429D+07         SATURATED ZONE =          67926.98
                LAKES =        1.6139D+08                  LAKES =        2795553.50

 OVERALL BUDGET ERROR =        5156926.89           BUDGET ERROR =           2106.78


  PERCENT DISCREPANCY =              0.69    PERCENT DISCREPANCY =              0.06



1
 SUMMARY VOLUMETRIC BUDGET FOR GSFLOW 
 DATE: 05 26 1981              CUMULATIVE TIME STEP:     238
 MODFLOW STRESS PERIOD      1     CURRENT TIME STEP:     238     ITERATIONS:      16

 -----------------------------------------------------------------------------------

   CUMULATIVE VOLUMES               L**3   RATES FOR THIS TIME STEP           L**3/T
   ------------------                      ------------------------

                                     IN                                         IN
                                     --                                         --
        PRECIPITATION =        7.7429D+08          PRECIPITATION =        1.7236D+07
           STREAMFLOW =                               STREAMFLOW =                  
     GW BOUNDARY FLOW =                         GW BOUNDARY FLOW =                  


                                    OUT                                        OUT
                                    ---                                        ---
   EVAPOTRANSPIRATION =        4.9677D+08     EVAPOTRANSPIRATION =        2648208.47
           STREAMFLOW =        6.5363D+07             STREAMFLOW =         180466.05
     GW BOUNDARY FLOW =                         GW BOUNDARY FLOW =                  

   INFLOWS - OUTFLOWS =        2.1215D+08     INFLOWS - OUTFLOWS =        1.4407D+07
             --------                                   --------

 TOTAL STORAGE CHANGE =        2.0652D+08         STORAGE CHANGE =        1.4227D+07
       --------------                             --------------
         LAND SURFACE =        3.1890D+07           LAND SURFACE =        -275022.79
            SOIL ZONE =        8660295.63              SOIL ZONE =        4715520.98
     UNSATURATED ZONE =        2605375.27       UNSATURATED ZONE =          12319.54
       SATURATED ZONE =       -9974994.05         SATURATED ZONE =         556506.50
                LAKES =        1.7334D+08                  LAKES =        9217928.00

 OVERALL BUDGET ERROR =        5629445.17           BUDGET ERROR =         179636.91


  PERCENT DISCREPANCY =              0.73    PERCENT DISCREPANCY =              1.05



1
 SUMMARY VOLUMETRIC BUDGET FOR GSFLOW 
 DATE: 06 02 1981              CUMULATIVE TIME STEP:     245
 MODFLOW STRESS PERIOD      1     CURRENT TIME STEP:     245     ITERATIONS:      66

 -----------------------------------------------------------------------------------

   CUMULATIVE VOLUMES               L**3   RATES FOR THIS TIME STEP           L**3/T
   ------------------                      ------------------------

                                     IN                                         IN
                                     --                                         --
        PRECIPITATION =        7.7429D+08          PRECIPITATION =                  
           STREAMFLOW =                               STREAMFLOW =                  
     GW BOUNDARY FLOW =                         GW BOUNDARY FLOW =                  


                                    OUT                                        OUT
                                    ---                                        ---
   EVAPOTRANSPIRATION =        5.3770D+08     EVAPOTRANSPIRATION =        5802373.03
           STREAMFLOW =        6.6583D+07             STREAMFLOW =         178725.95
     GW BOUNDARY FLOW =                         GW BOUNDARY FLOW =                  

   INFLOWS - OUTFLOWS =        1.7001D+08     INFLOWS - OUTFLOWS =       -5981098.99
             --------                                   --------

 TOTAL STORAGE CHANGE =        1.6437D+08         STORAGE CHANGE =       -5979245.46
       --------------                             --------------
         LAND SURFACE =        1.9162D+07           LAND SURFACE =       -1524432.06
            SOIL ZONE =       -7612719.20              SOIL ZONE =       -1966477.31
     UNSATURATED ZONE =       -1988824.41       UNSATURATED ZONE =        -125481.41
       SATURATED ZONE =       -8399784.46         SATURATED ZONE =        -221636.17
                LAKES =        1.6321D+08                  LAKES =       -2141218.50

 OVERALL BUDGET ERROR =        5634298.97           BUDGET ERROR =          -1853.53


  PERCENT DISCREPANCY =              0.73    PERCENT DISCREPANCY =             -0.03



1
 SUMMARY VOLUMETRIC BUDGET FOR GSFLOW 
 DATE: 06 09 1981              CUMULATIVE TIME STEP:     252
 MODFLOW STRESS PERIOD      1     CURRENT TIME STEP:     252     ITERATIONS:      50

 -----------------------------------------------------------------------------------

   CUMULATIVE VOLUMES               L**3   RATES FOR THIS TIME STEP           L**3/T
   ------------------                      ------------------------

                                     IN                                         IN
                                     --                                         --
        PRECIPITATION =        7.7752D+08          PRECIPITATION =                  
           STREAMFLOW =                               STREAMFLOW =                  
     GW BOUNDARY FLOW =                         GW BOUNDARY FLOW =                  


                                    OUT                                        OUT
                                    ---                                        ---
   EVAPOTRANSPIRATION =        5.7452D+08     EVAPOTRANSPIRATION =        5413419.80
           STREAMFLOW =        6.7827D+07             STREAMFLOW =         203133.83
     GW BOUNDARY FLOW =                         GW BOUNDARY FLOW =                  

   INFLOWS - OUTFLOWS =        1.3518D+08     INFLOWS - OUTFLOWS =       -5616553.63
             --------                                   --------

 TOTAL STORAGE CHANGE =        1.2954D+08         STORAGE CHANGE =       -5626143.52
       --------------                             --------------
         LAND SURFACE =        9796535.79           LAND SURFACE =        -964195.82
            SOIL ZONE =       -1.8502D+07              SOIL ZONE =       -1819630.39
     UNSATURATED ZONE =       -2818403.93       UNSATURATED ZONE =        -126034.80
       SATURATED ZONE =       -9631242.80         SATURATED ZONE =        -221465.52
                LAKES =        1.5070D+08                  LAKES =       -2494817.00

 OVERALL BUDGET ERROR =        5635044.44           BUDGET ERROR =           9589.90


  PERCENT DISCREPANCY =              0.73    PERCENT DISCREPANCY =              0.17



1
 SUMMARY VOLUMETRIC BUDGET FOR GSFLOW 
 DATE: 06 16 1981              CUMULATIVE TIME STEP:     259
 MODFLOW STRESS PERIOD      1     CURRENT TIME STEP:     259     ITERATIONS:      27

 -----------------------------------------------------------------------------------

   CUMULATIVE VOLUMES               L**3   RATES FOR THIS TIME STEP           L**3/T
   ------------------                      ------------------------

                                     IN                                         IN
                                     --                                         --
        PRECIPITATION =        7.7752D+08          PRECIPITATION =                  
           STREAMFLOW =                               STREAMFLOW =                  
     GW BOUNDARY FLOW =                         GW BOUNDARY FLOW =                  


                                    OUT                                        OUT
                                    ---                                        ---
   EVAPOTRANSPIRATION =        6.0221D+08     EVAPOTRANSPIRATION =        4685263.13
           STREAMFLOW =        7.0935D+07             STREAMFLOW =         702199.94
     GW BOUNDARY FLOW =                         GW BOUNDARY FLOW =                  

   INFLOWS - OUTFLOWS =        1.0438D+08     INFLOWS - OUTFLOWS =       -5387463.07
             --------                                   --------

 TOTAL STORAGE CHANGE =        9.8732D+07         STORAGE CHANGE =       -5381888.90
[...]
           STREAMFLOW =        1.6168D+09             STREAMFLOW =        4966705.50
     GW BOUNDARY FLOW =                         GW BOUNDARY FLOW =                  

   INFLOWS - OUTFLOWS =        1.0336D+09     INFLOWS - OUTFLOWS =        1138332.40
             --------                                   --------

 TOTAL STORAGE CHANGE =        1.0044D+09         STORAGE CHANGE =        1121653.10
       --------------                             --------------
         LAND SURFACE =        3.3540D+08           LAND SURFACE =        4606953.51
            SOIL ZONE =        5184643.96              SOIL ZONE =         -70377.58
     UNSATURATED ZONE =        1035431.12       UNSATURATED ZONE =          26957.04
       SATURATED ZONE =       -5.4730D+07         SATURATED ZONE =        -172346.38
                LAKES =        7.1748D+08                  LAKES =       -3269533.50

 OVERALL BUDGET ERROR =        2.9223D+07           BUDGET ERROR =          16679.30


  PERCENT DISCREPANCY =              0.53    PERCENT DISCREPANCY =              0.26



1
 SUMMARY VOLUMETRIC BUDGET FOR GSFLOW 
 DATE: 12 06 1983              CUMULATIVE TIME STEP:    1162
 MODFLOW STRESS PERIOD      1     CURRENT TIME STEP:    1162     ITERATIONS:       3

 -----------------------------------------------------------------------------------

   CUMULATIVE VOLUMES               L**3   RATES FOR THIS TIME STEP           L**3/T
   ------------------                      ------------------------

                                     IN                                         IN
                                     --                                         --
        PRECIPITATION =        5.6038D+09          PRECIPITATION =        3198161.89
           STREAMFLOW =                               STREAMFLOW =                  
     GW BOUNDARY FLOW =                         GW BOUNDARY FLOW =                  


                                    OUT                                        OUT
                                    ---                                        ---
   EVAPOTRANSPIRATION =        2.8996D+09     EVAPOTRANSPIRATION =         185774.78
           STREAMFLOW =        1.6522D+09             STREAMFLOW =        5064639.00
     GW BOUNDARY FLOW =                         GW BOUNDARY FLOW =                  

   INFLOWS - OUTFLOWS =        1.0520D+09     INFLOWS - OUTFLOWS =       -2052251.89
             --------                                   --------

 TOTAL STORAGE CHANGE =        1.0226D+09         STORAGE CHANGE =       -2068460.28
       --------------                             --------------
         LAND SURFACE =        3.7376D+08           LAND SURFACE =        2296320.51
            SOIL ZONE =        5750445.79              SOIL ZONE =        -130755.31
     UNSATURATED ZONE =        1323192.77       UNSATURATED ZONE =          28904.59
       SATURATED ZONE =       -5.5765D+07         SATURATED ZONE =        -165027.83
                LAKES =        6.9753D+08                  LAKES =       -4097902.25

 OVERALL BUDGET ERROR =        2.9442D+07           BUDGET ERROR =          16208.40


  PERCENT DISCREPANCY =              0.53    PERCENT DISCREPANCY =              0.31



1
 SUMMARY VOLUMETRIC BUDGET FOR GSFLOW 
 DATE: 12 13 1983              CUMULATIVE TIME STEP:    1169
 MODFLOW STRESS PERIOD      1     CURRENT TIME STEP:    1169     ITERATIONS:       9

 -----------------------------------------------------------------------------------

   CUMULATIVE VOLUMES               L**3   RATES FOR THIS TIME STEP           L**3/T
   ------------------                      ------------------------

                                     IN                                         IN
                                     --                                         --
        PRECIPITATION =        5.6998D+09          PRECIPITATION =        9594484.95
           STREAMFLOW =                               STREAMFLOW =                  
     GW BOUNDARY FLOW =                         GW BOUNDARY FLOW =                  


                                    OUT                                        OUT
                                    ---                                        ---
   EVAPOTRANSPIRATION =        2.9033D+09     EVAPOTRANSPIRATION =         226598.01
           STREAMFLOW =        1.6892D+09             STREAMFLOW =        5260512.00
     GW BOUNDARY FLOW =                         GW BOUNDARY FLOW =                  

   INFLOWS - OUTFLOWS =        1.1073D+09     INFLOWS - OUTFLOWS =        4107374.94
             --------                                   --------

 TOTAL STORAGE CHANGE =        1.0776D+09         STORAGE CHANGE =        4072234.34
       --------------                             --------------
         LAND SURFACE =        4.3778D+08           LAND SURFACE =        7019560.16
            SOIL ZONE =        6995194.78              SOIL ZONE =        -182947.25
     UNSATURATED ZONE =        1684598.69       UNSATURATED ZONE =          41986.52
       SATURATED ZONE =       -5.6388D+07         SATURATED ZONE =        -170957.83
                LAKES =        6.8749D+08                  LAKES =       -2635407.25

 OVERALL BUDGET ERROR =        2.9719D+07           BUDGET ERROR =          35140.60


  PERCENT DISCREPANCY =              0.52    PERCENT DISCREPANCY =              0.37



1
 SUMMARY VOLUMETRIC BUDGET FOR GSFLOW 
 DATE: 12 20 1983              CUMULATIVE TIME STEP:    1176
 MODFLOW STRESS PERIOD      1     CURRENT TIME STEP:    1176     ITERATIONS:       3

 -----------------------------------------------------------------------------------

   CUMULATIVE VOLUMES               L**3   RATES FOR THIS TIME STEP           L**3/T
   ------------------                      ------------------------

                                     IN                                         IN
                                     --                                         --
        PRECIPITATION =        5.7158D+09          PRECIPITATION =                  
           STREAMFLOW =                               STREAMFLOW =                  
     GW BOUNDARY FLOW =                         GW BOUNDARY FLOW =                  


                                    OUT                                        OUT
                                    ---                                        ---
   EVAPOTRANSPIRATION =        2.9111D+09     EVAPOTRANSPIRATION =         347177.42
           STREAMFLOW =        1.7277D+09             STREAMFLOW =        5578472.50
     GW BOUNDARY FLOW =                         GW BOUNDARY FLOW =                  

   INFLOWS - OUTFLOWS =        1.0769D+09     INFLOWS - OUTFLOWS =       -5925649.92
             --------                                   --------

 TOTAL STORAGE CHANGE =        1.0471D+09         STORAGE CHANGE =       -5946215.79
       --------------                             --------------
         LAND SURFACE =        4.4092D+08           LAND SURFACE =        -229898.36
            SOIL ZONE =        7732089.56              SOIL ZONE =        -180367.25
     UNSATURATED ZONE =        2192950.02       UNSATURATED ZONE =          43754.23
       SATURATED ZONE =       -5.7348D+07         SATURATED ZONE =        -190167.41
                LAKES =        6.5356D+08                  LAKES =       -5389537.00

 OVERALL BUDGET ERROR =        2.9883D+07           BUDGET ERROR =          20565.87


  PERCENT DISCREPANCY =              0.52    PERCENT DISCREPANCY =              0.35



1
 SUMMARY VOLUMETRIC BUDGET FOR GSFLOW 
 DATE: 12 27 1983              CUMULATIVE TIME STEP:    1183
 MODFLOW STRESS PERIOD      1     CURRENT TIME STEP:    1183     ITERATIONS:       6

 -----------------------------------------------------------------------------------

   CUMULATIVE VOLUMES               L**3   RATES FOR THIS TIME STEP           L**3/T
   ------------------                      ------------------------

                                     IN                                         IN
                                     --                                         --
        PRECIPITATION =        5.8917D+09          PRECIPITATION =        9594484.95
           STREAMFLOW =                               STREAMFLOW =                  
     GW BOUNDARY FLOW =                         GW BOUNDARY FLOW =                  


                                    OUT                                        OUT
                                    ---                                        ---
   EVAPOTRANSPIRATION =        2.9133D+09     EVAPOTRANSPIRATION =         396879.73
           STREAMFLOW =        1.7667D+09             STREAMFLOW =        5677393.00
     GW BOUNDARY FLOW =                         GW BOUNDARY FLOW =                  

   INFLOWS - OUTFLOWS =        1.2116D+09     INFLOWS - OUTFLOWS =        3520212.22
             --------                                   --------

 TOTAL STORAGE CHANGE =        1.1814D+09         STORAGE CHANGE =        3478660.27
       --------------                             --------------
         LAND SURFACE =        5.6571D+08           LAND SURFACE =        5841371.54
            SOIL ZONE =        8465272.25              SOIL ZONE =         227985.09
     UNSATURATED ZONE =        2453804.78       UNSATURATED ZONE =          99891.92
       SATURATED ZONE =       -5.7964D+07         SATURATED ZONE =         -90787.28
                LAKES =        6.6278D+08                  LAKES =       -2599801.00

 OVERALL BUDGET ERROR =        3.0150D+07           BUDGET ERROR =          41551.94


  PERCENT DISCREPANCY =              0.51    PERCENT DISCREPANCY =              0.43



1
 SUMMARY VOLUMETRIC BUDGET FOR GSFLOW 
 DATE: 01 03 1984              CUMULATIVE TIME STEP:    1190
 MODFLOW STRESS PERIOD      1     CURRENT TIME STEP:    1190     ITERATIONS:       6

 -----------------------------------------------------------------------------------

   CUMULATIVE VOLUMES               L**3   RATES FOR THIS TIME STEP           L**3/T
   ------------------                      ------------------------

                                     IN                                         IN
                                     --                                         --
        PRECIPITATION =        5.9235D+09          PRECIPITATION =                  
           STREAMFLOW =                               STREAMFLOW =                  
     GW BOUNDARY FLOW =                         GW BOUNDARY FLOW =                  


                                    OUT                                        OUT
                                    ---                                        ---
   EVAPOTRANSPIRATION =        2.9197D+09     EVAPOTRANSPIRATION =        1448253.32
           STREAMFLOW =        1.8063D+09             STREAMFLOW =        5603065.50
     GW BOUNDARY FLOW =                         GW BOUNDARY FLOW =                  

   INFLOWS - OUTFLOWS =        1.1974D+09     INFLOWS - OUTFLOWS =       -7051318.82
             --------                                   --------

 TOTAL STORAGE CHANGE =        1.1669D+09         STORAGE CHANGE =       -7090283.83
       --------------                             --------------
         LAND SURFACE =        5.7870D+08           LAND SURFACE =        -976138.39
            SOIL ZONE =        9177383.52              SOIL ZONE =        -188209.07
     UNSATURATED ZONE =        3015246.42       UNSATURATED ZONE =          42050.51
       SATURATED ZONE =       -5.8844D+07         SATURATED ZONE =        -189537.88
                LAKES =        6.3481D+08                  LAKES =       -5778449.00

 OVERALL BUDGET ERROR =        3.0547D+07           BUDGET ERROR =          38965.01


  PERCENT DISCREPANCY =              0.52    PERCENT DISCREPANCY =              0.55



1
 SUMMARY VOLUMETRIC BUDGET FOR GSFLOW 
 DATE: 01 10 1984              CUMULATIVE TIME STEP:    1197
 MODFLOW STRESS PERIOD      1     CURRENT TIME STEP:    1197     ITERATIONS:       8

 -----------------------------------------------------------------------------------

   CUMULATIVE VOLUMES               L**3   RATES FOR THIS TIME STEP           L**3/T
   ------------------                      ------------------------

                                     IN                                         IN
                                     --                                         --
        PRECIPITATION =        5.9235D+09          PRECIPITATION =                  
           STREAMFLOW =                               STREAMFLOW =                  
     GW BOUNDARY FLOW =                         GW BOUNDARY FLOW =                  


                                    OUT                                        OUT
                                    ---                                        ---
   EVAPOTRANSPIRATION =        2.9322D+09     EVAPOTRANSPIRATION =        1727792.94
           STREAMFLOW =        1.8438D+09             STREAMFLOW =        5235933.50
     GW BOUNDARY FLOW =                         GW BOUNDARY FLOW =                  

   INFLOWS - OUTFLOWS =        1.1475D+09     INFLOWS - OUTFLOWS =       -6963726.44
             --------                                   --------

 TOTAL STORAGE CHANGE =        1.1168D+09         STORAGE CHANGE =       -7006435.53
       --------------                             --------------
         LAND SURFACE =        5.6643D+08           LAND SURFACE =       -2016428.22
            SOIL ZONE =        1.0298D+07              SOIL ZONE =         295810.30
     UNSATURATED ZONE =        3384474.15       UNSATURATED ZONE =          74103.73
       SATURATED ZONE =       -5.9634D+07         SATURATED ZONE =         -67411.33
                LAKES =        5.9628D+08                  LAKES =       -5292510.00

 OVERALL BUDGET ERROR =        3.0784D+07           BUDGET ERROR =          42709.09


  PERCENT DISCREPANCY =              0.52    PERCENT DISCREPANCY =              0.61



1
 SUMMARY VOLUMETRIC BUDGET FOR GSFLOW 
 DATE: 01 17 1984              CUMULATIVE TIME STEP:    1204
 MODFLOW STRESS PERIOD      1     CURRENT TIME STEP:    1204     ITERATIONS:       4

 -----------------------------------------------------------------------------------

   CUMULATIVE VOLUMES               L**3   RATES FOR THIS TIME STEP           L**3/T
   ------------------                      ------------------------

                                     IN                                         IN
                                     --                                         --
        PRECIPITATION =        5.9475D+09          PRECIPITATION =                  
           STREAMFLOW =                               STREAMFLOW =                  
     GW BOUNDARY FLOW =                         GW BOUNDARY FLOW =                  


                                    OUT                                        OUT
                                    ---                                        ---
   EVAPOTRANSPIRATION =        2.9359D+09     EVAPOTRANSPIRATION =         514269.30
           STREAMFLOW =        1.8795D+09             STREAMFLOW =        5015584.50
     GW BOUNDARY FLOW =                         GW BOUNDARY FLOW =                  

   INFLOWS - OUTFLOWS =        1.1321D+09     INFLOWS - OUTFLOWS =       -5529853.80
             --------                                   --------

 TOTAL STORAGE CHANGE =        1.1012D+09         STORAGE CHANGE =       -5537481.62
       --------------                             --------------
         LAND SURFACE =        5.8186D+08           LAND SURFACE =        -369940.34
            SOIL ZONE =        9292375.75              SOIL ZONE =        -102317.17
     UNSATURATED ZONE =        3448727.26       UNSATURATED ZONE =          -4943.59
       SATURATED ZONE =       -6.0652D+07         SATURATED ZONE =        -151671.52
                LAKES =        5.6723D+08                  LAKES =       -4908609.00

 OVERALL BUDGET ERROR =        3.0888D+07           BUDGET ERROR =           7627.82


  PERCENT DISCREPANCY =              0.52    PERCENT DISCREPANCY =              0.14



1
 SUMMARY VOLUMETRIC BUDGET FOR GSFLOW 
 DATE: 01 24 1984              CUMULATIVE TIME STEP:    1211
 MODFLOW STRESS PERIOD      1     CURRENT TIME STEP:    1211     ITERATIONS:       9

 -----------------------------------------------------------------------------------

   CUMULATIVE VOLUMES               L**3   RATES FOR THIS TIME STEP           L**3/T
   ------------------                      ------------------------

                                     IN                                         IN
                                     --                                         --
        PRECIPITATION =        5.9535D+09          PRECIPITATION =                  
           STREAMFLOW =                               STREAMFLOW =                  
     GW BOUNDARY FLOW =                         GW BOUNDARY FLOW =                  


                                    OUT                                        OUT
                                    ---                                        ---
   EVAPOTRANSPIRATION =        2.9413D+09     EVAPOTRANSPIRATION =        1048204.38
           STREAMFLOW =        1.9143D+09             STREAMFLOW =        4917690.00
     GW BOUNDARY FLOW =                         GW BOUNDARY FLOW =                  

   INFLOWS - OUTFLOWS =        1.0979D+09     INFLOWS - OUTFLOWS =       -5965894.38
             --------                                   --------

 TOTAL STORAGE CHANGE =        1.0669D+09         STORAGE CHANGE =       -5980876.65
       --------------                             --------------
         LAND SURFACE =        5.8317D+08           LAND SURFACE =        -583964.56
            SOIL ZONE =        8755171.42              SOIL ZONE =         -67689.35
     UNSATURATED ZONE =        3235552.15       UNSATURATED ZONE =         -41156.93
       SATURATED ZONE =       -6.1628D+07         SATURATED ZONE =        -136715.81
                LAKES =        5.3337D+08                  LAKES =       -5151350.00

 OVERALL BUDGET ERROR =        3.0972D+07           BUDGET ERROR =          14982.27


  PERCENT DISCREPANCY =              0.52    PERCENT DISCREPANCY =              0.25



 Number of time steps:   1217;  Number of non-convergence:   0
 MF iterations:         22631;  SZ iterations:           22674
 Average MF iterations: 18.60;  Average SZ iterations:   18.63
 Maximum MF iterations:   138;  Maximum SZ iterations:     138

MF iteration distribution:      0   18   74   93   76   46   32   37   51   38
                               48   40   52   38   28   27   22   20   38   19
                               25   11   16   11   18   17   19   23   30   11
                               22   10   12    7   34    7   13    3   12    7
                                8    7   11    6    2    7    4   11    7    3
                                2    9    3    3    2    0    1    0    1    0
                                2    1    2    3    1    2    0    2    2    1
                                0    1    1    0    0    0    1    0    0    6

SZ computation distribution:    0   16   75   93   77   43   35   36   50   39
                               49   33   57   36   30   24   25   22   31   25
                               26   10   17   11   18   17   19   23   30   11
                               22   10   12    7   34    7   13    3   12    7
                                8    7   11    6    2    7    4   11    6    4
                                2    9    3    3    2    0    1    0    1    0
                                2    1    2    3    1    2    0    2    2    1
                                0    1    1    0    0    0    1    0    0    6

