1
 SUMMARY VOLUMETRIC BUDGET FOR GSFLOW 
 DATE: 10 07 1980              CUMULATIVE TIME STEP:       7
 MODFLOW STRESS PERIOD      1     CURRENT TIME STEP:       7     ITERATIONS:      14

 -----------------------------------------------------------------------------------

   CUMULATIVE VOLUMES               L**3   RATES FOR THIS TIME STEP           L**3/T
   ------------------                      ------------------------

                                     IN                                         IN
                                     --                                         --
        PRECIPITATION =                            PRECIPITATION =                  
           STREAMFLOW =                               STREAMFLOW =                  
     GW BOUNDARY FLOW =                         GW BOUNDARY FLOW =                  


                                    OUT                                        OUT
                                    ---                                        ---
   EVAPOTRANSPIRATION =        1.5902D+07     EVAPOTRANSPIRATION =        1486778.45
           STREAMFLOW =        1672059.05             STREAMFLOW =         183556.66
     GW BOUNDARY FLOW =                         GW BOUNDARY FLOW =                  

   INFLOWS - OUTFLOWS =       -1.7574D+07     INFLOWS - OUTFLOWS =       -1670335.10
             --------                                   --------

 TOTAL STORAGE CHANGE =       -1.7548D+07         STORAGE CHANGE =       -1676943.00
       --------------                             --------------
         LAND SURFACE =                             LAND SURFACE =                  
            SOIL ZONE =       -5740147.57              SOIL ZONE =        -270250.09
     UNSATURATED ZONE =       -1425433.12       UNSATURATED ZONE =         -62824.44
       SATURATED ZONE =       -1298452.75         SATURATED ZONE =        -269812.22
                LAKES =       -9083916.50                  LAKES =       -1074056.25

 OVERALL BUDGET ERROR =         -25766.85           BUDGET ERROR =           6607.89


  PERCENT DISCREPANCY =             -0.15    PERCENT DISCREPANCY =              0.39



1
 SUMMARY VOLUMETRIC BUDGET FOR GSFLOW 
 DATE: 10 14 1980              CUMULATIVE TIME STEP:      14
 MODFLOW STRESS PERIOD      1     CURRENT TIME STEP:      14     ITERATIONS:       3

 -----------------------------------------------------------------------------------

   CUMULATIVE VOLUMES               L**3   RATES FOR THIS TIME STEP           L**3/T
   ------------------                      ------------------------

                                     IN                                         IN
                                     --                                         --
        PRECIPITATION =        1.3442D+07          PRECIPITATION =        6721104.51
           STREAMFLOW =                               STREAMFLOW =                  
     GW BOUNDARY FLOW =                         GW BOUNDARY FLOW =                  


                                    OUT                                        OUT
                                    ---                                        ---
   EVAPOTRANSPIRATION =        2.3601D+07     EVAPOTRANSPIRATION =         501661.47
           STREAMFLOW =        2279257.78             STREAMFLOW =          34825.50
     GW BOUNDARY FLOW =                         GW BOUNDARY FLOW =                  

   INFLOWS - OUTFLOWS =       -1.2438D+07     INFLOWS - OUTFLOWS =        6184617.54
             --------                                   --------

 TOTAL STORAGE CHANGE =       -1.2508D+07         STORAGE CHANGE =        6139549.69
       --------------                             --------------
         LAND SURFACE =        2552191.86           LAND SURFACE =        1584944.65
            SOIL ZONE =         -63997.35              SOIL ZONE =        2954220.19
     UNSATURATED ZONE =       -1866241.45       UNSATURATED ZONE =         -57400.99
       SATURATED ZONE =       -2730640.80         SATURATED ZONE =        -123074.53
                LAKES =       -1.0399D+07                  LAKES =        1780860.38

 OVERALL BUDGET ERROR =          70300.25           BUDGET ERROR =          45067.85


  PERCENT DISCREPANCY =              0.27    PERCENT DISCREPANCY =              0.67



1
 SUMMARY VOLUMETRIC BUDGET FOR GSFLOW 
 DATE: 10 21 1980              CUMULATIVE TIME STEP:      21
 MODFLOW STRESS PERIOD      1     CURRENT TIME STEP:      21     ITERATIONS:       3

 -----------------------------------------------------------------------------------

   CUMULATIVE VOLUMES               L**3   RATES FOR THIS TIME STEP           L**3/T
   ------------------                      ------------------------

                                     IN                                         IN
                                     --                                         --
        PRECIPITATION =        1.6803D+07          PRECIPITATION =                  
           STREAMFLOW =                               STREAMFLOW =                  
     GW BOUNDARY FLOW =                         GW BOUNDARY FLOW =                  


                                    OUT                                        OUT
                                    ---                                        ---
   EVAPOTRANSPIRATION =        3.0531D+07     EVAPOTRANSPIRATION =        1454743.56
           STREAMFLOW =        3039697.01             STREAMFLOW =         364392.81
     GW BOUNDARY FLOW =                         GW BOUNDARY FLOW =                  

   INFLOWS - OUTFLOWS =       -1.6768D+07     INFLOWS - OUTFLOWS =       -1819136.37
             --------                                   --------

 TOTAL STORAGE CHANGE =       -1.6853D+07         STORAGE CHANGE =       -1813546.18
       --------------                             --------------
         LAND SURFACE =         582235.13           LAND SURFACE =        -191386.43
            SOIL ZONE =        -324569.90              SOIL ZONE =        -635072.96
     UNSATURATED ZONE =       -2304052.43       UNSATURATED ZONE =         -58771.13
       SATURATED ZONE =       -3774833.47         SATURATED ZONE =        -157224.59
                LAKES =       -1.1032D+07                  LAKES =        -771091.06

 OVERALL BUDGET ERROR =          84953.22           BUDGET ERROR =          -5590.19


  PERCENT DISCREPANCY =              0.25    PERCENT DISCREPANCY =             -0.31



1
 SUMMARY VOLUMETRIC BUDGET FOR GSFLOW 
 DATE: 10 28 1980              CUMULATIVE TIME STEP:      28
 MODFLOW STRESS PERIOD      1     CURRENT TIME STEP:      28     ITERATIONS:       4

 -----------------------------------------------------------------------------------

   CUMULATIVE VOLUMES               L**3   RATES FOR THIS TIME STEP           L**3/T
   ------------------                      ------------------------

                                     IN                                         IN
                                     --                                         --
        PRECIPITATION =        4.0327D+07          PRECIPITATION =                  
           STREAMFLOW =                               STREAMFLOW =                  
     GW BOUNDARY FLOW =                         GW BOUNDARY FLOW =                  


                                    OUT                                        OUT
                                    ---                                        ---
   EVAPOTRANSPIRATION =        3.7505D+07     EVAPOTRANSPIRATION =         437372.10
           STREAMFLOW =        5483163.45             STREAMFLOW =         342843.84
     GW BOUNDARY FLOW =                         GW BOUNDARY FLOW =                  

   INFLOWS - OUTFLOWS =       -2661634.31     INFLOWS - OUTFLOWS =        -780215.94
             --------                                   --------

 TOTAL STORAGE CHANGE =       -2920176.42         STORAGE CHANGE =        -733760.81
       --------------                             --------------
         LAND SURFACE =        4873656.87           LAND SURFACE =        -161715.81
            SOIL ZONE =        7118648.70              SOIL ZONE =        -251878.21
     UNSATURATED ZONE =       -2603027.79       UNSATURATED ZONE =         -32078.79
       SATURATED ZONE =       -4497245.03         SATURATED ZONE =        -127008.64
                LAKES =       -7812209.16                  LAKES =        -161079.36

 OVERALL BUDGET ERROR =         258542.10           BUDGET ERROR =         -46455.13

  ***WARNING, FLUX RATES OFF > 3%

  PERCENT DISCREPANCY =              0.60    PERCENT DISCREPANCY =             -6.14



1
 SUMMARY VOLUMETRIC BUDGET FOR GSFLOW 
 DATE: 11 04 1980              CUMULATIVE TIME STEP:      35
 MODFLOW STRESS PERIOD      1     CURRENT TIME STEP:      35     ITERATIONS:       5

 -----------------------------------------------------------------------------------

   CUMULATIVE VOLUMES               L**3   RATES FOR THIS TIME STEP           L**3/T
   ------------------                      ------------------------

                                     IN                                         IN
                                     --                                         --
        PRECIPITATION =        5.0408D+07          PRECIPITATION =                  
           STREAMFLOW =                               STREAMFLOW =                  
     GW BOUNDARY FLOW =                         GW BOUNDARY FLOW =                  


                                    OUT                                        OUT
                                    ---                                        ---
   EVAPOTRANSPIRATION =        5.2245D+07     EVAPOTRANSPIRATION =        2795316.29
           STREAMFLOW =        7932061.89             STREAMFLOW =         350030.38
     GW BOUNDARY FLOW =                         GW BOUNDARY FLOW =                  

   INFLOWS - OUTFLOWS =       -9769239.99     INFLOWS - OUTFLOWS =       -3145346.66
             --------                                   --------

 TOTAL STORAGE CHANGE =       -1.0348D+07         STORAGE CHANGE =       -3138012.97
       --------------                             --------------
         LAND SURFACE =         253222.42           LAND SURFACE =         -53384.75
            SOIL ZONE =        4059867.06              SOIL ZONE =       -1773880.09
     UNSATURATED ZONE =       -2548086.11       UNSATURATED ZONE =         -43081.41
       SATURATED ZONE =       -5038876.05         SATURATED ZONE =        -250147.72
                LAKES =       -7074445.91                  LAKES =       -1017519.00

 OVERALL BUDGET ERROR =         579078.60           BUDGET ERROR =          -7333.69


  PERCENT DISCREPANCY =              0.96    PERCENT DISCREPANCY =             -0.23



1
 SUMMARY VOLUMETRIC BUDGET FOR GSFLOW 
 DATE: 11 11 1980              CUMULATIVE TIME STEP:      42
 MODFLOW STRESS PERIOD      1     CURRENT TIME STEP:      42     ITERATIONS:       5

 -----------------------------------------------------------------------------------

   CUMULATIVE VOLUMES               L**3   RATES FOR THIS TIME STEP           L**3/T
   ------------------                      ------------------------

                                     IN                                         IN
                                     --                                         --
        PRECIPITATION =        7.9485D+07          PRECIPITATION =        3230734.65
           STREAMFLOW =                               STREAMFLOW =                  
     GW BOUNDARY FLOW =                         GW BOUNDARY FLOW =                  


                                    OUT                                        OUT
                                    ---                                        ---
   EVAPOTRANSPIRATION =        6.9945D+07     EVAPOTRANSPIRATION =        1682042.31
           STREAMFLOW =        9809690.98             STREAMFLOW =         250092.16
     GW BOUNDARY FLOW =                         GW BOUNDARY FLOW =                  

   INFLOWS - OUTFLOWS =        -270268.69     INFLOWS - OUTFLOWS =        1298600.19
             --------                                   --------

 TOTAL STORAGE CHANGE =       -1201902.24         STORAGE CHANGE =        1173650.54
       --------------                             --------------
         LAND SURFACE =        3621835.69           LAND SURFACE =         -63920.04
            SOIL ZONE =        8714229.39              SOIL ZONE =         696771.74
     UNSATURATED ZONE =       -2593969.61       UNSATURATED ZONE =          36709.24
       SATURATED ZONE =       -5926007.50         SATURATED ZONE =         -41620.39
                LAKES =       -5017990.22                  LAKES =         545710.00

 OVERALL BUDGET ERROR =         931633.56           BUDGET ERROR =         124949.65

  ***WARNING, FLUX RATES OFF > 3%

  PERCENT DISCREPANCY =              1.16    PERCENT DISCREPANCY =              3.94



1
 SUMMARY VOLUMETRIC BUDGET FOR GSFLOW 
 DATE: 11 18 1980              CUMULATIVE TIME STEP:      49
 MODFLOW STRESS PERIOD      1     CURRENT TIME STEP:      49     ITERATIONS:       3

 -----------------------------------------------------------------------------------

   CUMULATIVE VOLUMES               L**3   RATES FOR THIS TIME STEP           L**3/T
   ------------------                      ------------------------

                                     IN                                         IN
                                     --                                         --
        PRECIPITATION =        8.5946D+07          PRECIPITATION =                  
           STREAMFLOW =                               STREAMFLOW =                  
     GW BOUNDARY FLOW =                         GW BOUNDARY FLOW =                  


                                    OUT                                        OUT
                                    ---                                        ---
   EVAPOTRANSPIRATION =        7.6133D+07     EVAPOTRANSPIRATION =        1491034.53
           STREAMFLOW =        1.1638D+07             STREAMFLOW =         312770.31
     GW BOUNDARY FLOW =                         GW BOUNDARY FLOW =                  

   INFLOWS - OUTFLOWS =       -1824904.45     INFLOWS - OUTFLOWS =       -1803804.84
             --------                                   --------

 TOTAL STORAGE CHANGE =       -2509762.27         STORAGE CHANGE =       -1758883.33
       --------------                             --------------
         LAND SURFACE =        4247190.46           LAND SURFACE =        -429064.21
            SOIL ZONE =        8138604.13              SOIL ZONE =        -641671.01
     UNSATURATED ZONE =       -2534387.20       UNSATURATED ZONE =          15191.00
       SATURATED ZONE =       -7173291.48         SATURATED ZONE =        -172112.30
                LAKES =       -5187878.18                  LAKES =        -531226.81

 OVERALL BUDGET ERROR =         684857.82           BUDGET ERROR =         -44921.51


  PERCENT DISCREPANCY =              0.78    PERCENT DISCREPANCY =             -2.52



1
 SUMMARY VOLUMETRIC BUDGET FOR GSFLOW 
 DATE: 11 25 1980              CUMULATIVE TIME STEP:      56
 MODFLOW STRESS PERIOD      1     CURRENT TIME STEP:      56     ITERATIONS:       3

 -----------------------------------------------------------------------------------

   CUMULATIVE VOLUMES               L**3   RATES FOR THIS TIME STEP           L**3/T
   ------------------                      ------------------------

                                     IN                                         IN
                                     --                                         --
        PRECIPITATION =        8.9177D+07          PRECIPITATION =                  
           STREAMFLOW =                               STREAMFLOW =                  
     GW BOUNDARY FLOW =                         GW BOUNDARY FLOW =                  


                                    OUT                                        OUT
                                    ---                                        ---
   EVAPOTRANSPIRATION =        8.2911D+07     EVAPOTRANSPIRATION =         270470.48
           STREAMFLOW =        1.4055D+07             STREAMFLOW =         437097.81
     GW BOUNDARY FLOW =                         GW BOUNDARY FLOW =                  

   INFLOWS - OUTFLOWS =       -7788362.38     INFLOWS - OUTFLOWS =        -707568.29
             --------                                   --------

 TOTAL STORAGE CHANGE =       -8561866.11         STORAGE CHANGE =        -720892.85
       --------------                             --------------
         LAND SURFACE =        4128151.39           LAND SURFACE =         -26936.60
            SOIL ZONE =        6206747.95              SOIL ZONE =        -178120.52
     UNSATURATED ZONE =       -2564431.08       UNSATURATED ZONE =         -17359.83
       SATURATED ZONE =       -8410347.23         SATURATED ZONE =        -181992.78
                LAKES =       -7921987.14                  LAKES =        -316483.12

 OVERALL BUDGET ERROR =         773503.73           BUDGET ERROR =          13324.56


  PERCENT DISCREPANCY =              0.79    PERCENT DISCREPANCY =              1.87



1
 SUMMARY VOLUMETRIC BUDGET FOR GSFLOW 
 DATE: 12 02 1980              CUMULATIVE TIME STEP:      63
 MODFLOW STRESS PERIOD      1     CURRENT TIME STEP:      63     ITERATIONS:       4

 -----------------------------------------------------------------------------------

   CUMULATIVE VOLUMES               L**3   RATES FOR THIS TIME STEP           L**3/T
   ------------------                      ------------------------

                                     IN                                         IN
                                     --                                         --
        PRECIPITATION =        1.0846D+08          PRECIPITATION =        3198161.89
           STREAMFLOW =                               STREAMFLOW =                  
     GW BOUNDARY FLOW =                         GW BOUNDARY FLOW =                  


                                    OUT                                        OUT
                                    ---                                        ---
   EVAPOTRANSPIRATION =        9.0375D+07     EVAPOTRANSPIRATION =        1269996.98
           STREAMFLOW =        1.7318D+07             STREAMFLOW =         437215.56
     GW BOUNDARY FLOW =                         GW BOUNDARY FLOW =                  

   INFLOWS - OUTFLOWS =         771405.20     INFLOWS - OUTFLOWS =        1490949.36
             --------                                   --------

 TOTAL STORAGE CHANGE =        -379442.13         STORAGE CHANGE =        1323313.62
       --------------                             --------------
         LAND SURFACE =        7153033.00           LAND SURFACE =        -909613.44
            SOIL ZONE =        1.0040D+07              SOIL ZONE =        1706817.34
     UNSATURATED ZONE =       -2434511.27       UNSATURATED ZONE =          45495.22
       SATURATED ZONE =       -9155141.54         SATURATED ZONE =         -50604.56
                LAKES =       -5982922.71                  LAKES =         531219.06

 OVERALL BUDGET ERROR =        1150847.33           BUDGET ERROR =         167635.73

  ***WARNING, FLUX RATES OFF > 3%

  PERCENT DISCREPANCY =              1.06    PERCENT DISCREPANCY =              5.38



1
 SUMMARY VOLUMETRIC BUDGET FOR GSFLOW 
 DATE: 12 09 1980              CUMULATIVE TIME STEP:      70
 MODFLOW STRESS PERIOD      1     CURRENT TIME STEP:      70     ITERATIONS:       3

 -----------------------------------------------------------------------------------

   CUMULATIVE VOLUMES               L**3   RATES FOR THIS TIME STEP           L**3/T
   ------------------                      ------------------------

                                     IN                                         IN
                                     --                                         --
        PRECIPITATION =        1.7882D+08          PRECIPITATION =                  
           STREAMFLOW =                               STREAMFLOW =                  
     GW BOUNDARY FLOW =                         GW BOUNDARY FLOW =                  


                                    OUT                                        OUT
                                    ---                                        ---
   EVAPOTRANSPIRATION =        9.2654D+07     EVAPOTRANSPIRATION =         376383.54
           STREAMFLOW =        2.0282D+07             STREAMFLOW =         420980.56
     GW BOUNDARY FLOW =                         GW BOUNDARY FLOW =                  

   INFLOWS - OUTFLOWS =        6.5887D+07     INFLOWS - OUTFLOWS =        -797364.10
             --------                                   --------

 TOTAL STORAGE CHANGE =        6.4453D+07         STORAGE CHANGE =        -819893.03
       --------------                             --------------
         LAND SURFACE =        5.1471D+07           LAND SURFACE =        -232729.71
            SOIL ZONE =        1.3028D+07              SOIL ZONE =        -136294.61
     UNSATURATED ZONE =       -2047207.29       UNSATURATED ZONE =          32822.07
       SATURATED ZONE =       -1.0141D+07         SATURATED ZONE =        -204546.97
                LAKES =        1.2143D+07                  LAKES =        -279143.81

 OVERALL BUDGET ERROR =        1433464.73           BUDGET ERROR =          22528.92


  PERCENT DISCREPANCY =              0.80    PERCENT DISCREPANCY =              2.79



1
 SUMMARY VOLUMETRIC BUDGET FOR GSFLOW 
 DATE: 12 16 1980              CUMULATIVE TIME STEP:      77
 MODFLOW STRESS PERIOD      1     CURRENT TIME STEP:      77     ITERATIONS:       2

 -----------------------------------------------------------------------------------

   CUMULATIVE VOLUMES               L**3   RATES FOR THIS TIME STEP           L**3/T
   ------------------                      ------------------------

                                     IN                                         IN
                                     --                                         --
        PRECIPITATION =        1.7882D+08          PRECIPITATION =                  
           STREAMFLOW =                               STREAMFLOW =                  
     GW BOUNDARY FLOW =                         GW BOUNDARY FLOW =                  


                                    OUT                                        OUT
                                    ---                                        ---
   EVAPOTRANSPIRATION =        9.9121D+07     EVAPOTRANSPIRATION =        1465870.22
           STREAMFLOW =        2.3263D+07             STREAMFLOW =         430699.06
     GW BOUNDARY FLOW =                         GW BOUNDARY FLOW =                  

   INFLOWS - OUTFLOWS =        5.6440D+07     INFLOWS - OUTFLOWS =       -1896569.28
             --------                                   --------

 TOTAL STORAGE CHANGE =        5.4850D+07         STORAGE CHANGE =       -1936463.02
       --------------                             --------------
         LAND SURFACE =        4.7223D+07           LAND SURFACE =       -1206516.25
            SOIL ZONE =        1.2672D+07              SOIL ZONE =         211070.84
     UNSATURATED ZONE =       -1999070.50       UNSATURATED ZONE =          -2796.16
       SATURATED ZONE =       -1.1483D+07         SATURATED ZONE =        -178099.58
                LAKES =        8437028.83                  LAKES =        -760121.88

 OVERALL BUDGET ERROR =        1589789.30           BUDGET ERROR =          39893.74


  PERCENT DISCREPANCY =              0.89    PERCENT DISCREPANCY =              2.08



1
 SUMMARY VOLUMETRIC BUDGET FOR GSFLOW 
 DATE: 12 23 1980              CUMULATIVE TIME STEP:      84
 MODFLOW STRESS PERIOD      1     CURRENT TIME STEP:      84     ITERATIONS:       7

 -----------------------------------------------------------------------------------

   CUMULATIVE VOLUMES               L**3   RATES FOR THIS TIME STEP           L**3/T
   ------------------                      ------------------------

                                     IN                                         IN
                                     --                                         --
        PRECIPITATION =        1.8522D+08          PRECIPITATION =        3198161.89
           STREAMFLOW =                               STREAMFLOW =                  
     GW BOUNDARY FLOW =                         GW BOUNDARY FLOW =                  


                                    OUT                                        OUT
                                    ---                                        ---
   EVAPOTRANSPIRATION =        1.0749D+08     EVAPOTRANSPIRATION =        1090118.86
           STREAMFLOW =        2.6316D+07             STREAMFLOW =         443565.59
     GW BOUNDARY FLOW =                         GW BOUNDARY FLOW =                  

   INFLOWS - OUTFLOWS =        5.1409D+07     INFLOWS - OUTFLOWS =        1664477.44
             --------                                   --------

 TOTAL STORAGE CHANGE =        4.9565D+07         STORAGE CHANGE =        1610180.04
       --------------                             --------------
         LAND SURFACE =        4.2129D+07           LAND SURFACE =        -245970.28
            SOIL ZONE =        1.5545D+07              SOIL ZONE =        1327058.71
     UNSATURATED ZONE =       -1884091.78       UNSATURATED ZONE =          62205.10
       SATURATED ZONE =       -1.2407D+07         SATURATED ZONE =         -56617.77
                LAKES =        6182036.92                  LAKES =         523504.28

 OVERALL BUDGET ERROR =        1844415.50           BUDGET ERROR =          54297.40


  PERCENT DISCREPANCY =              1.00    PERCENT DISCREPANCY =              1.71



1
 SUMMARY VOLUMETRIC BUDGET FOR GSFLOW 
 DATE: 12 30 1980              CUMULATIVE TIME STEP:      91
 MODFLOW STRESS PERIOD      1     CURRENT TIME STEP:      91     ITERATIONS:       4

 -----------------------------------------------------------------------------------

   CUMULATIVE VOLUMES               L**3   RATES FOR THIS TIME STEP           L**3/T
   ------------------                      ------------------------

                                     IN                                         IN
                                     --                                         --
        PRECIPITATION =        1.8522D+08          PRECIPITATION =                  
           STREAMFLOW =                               STREAMFLOW =                  
     GW BOUNDARY FLOW =                         GW BOUNDARY FLOW =                  


                                    OUT                                        OUT
                                    ---                                        ---
   EVAPOTRANSPIRATION =        1.1778D+08     EVAPOTRANSPIRATION =        1247955.43
           STREAMFLOW =        2.9399D+07             STREAMFLOW =         445279.78
     GW BOUNDARY FLOW =                         GW BOUNDARY FLOW =                  

   INFLOWS - OUTFLOWS =        3.8037D+07     INFLOWS - OUTFLOWS =       -1693235.21
             --------                                   --------

 TOTAL STORAGE CHANGE =        3.6031D+07         STORAGE CHANGE =       -1713019.37
       --------------                             --------------
         LAND SURFACE =        3.5990D+07           LAND SURFACE =        -559081.80
            SOIL ZONE =        1.3731D+07              SOIL ZONE =        -383683.30
     UNSATURATED ZONE =       -1769434.08       UNSATURATED ZONE =           9608.67
       SATURATED ZONE =       -1.3475D+07         SATURATED ZONE =        -165168.88
                LAKES =        1554919.05                  LAKES =        -614694.06

 OVERALL BUDGET ERROR =        2005905.25           BUDGET ERROR =          19784.16


  PERCENT DISCREPANCY =              1.09    PERCENT DISCREPANCY =              1.16



1
 SUMMARY VOLUMETRIC BUDGET FOR GSFLOW 
 DATE: 01 06 1981              CUMULATIVE TIME STEP:      98
 MODFLOW STRESS PERIOD      1     CURRENT TIME STEP:      98     ITERATIONS:      24

 -----------------------------------------------------------------------------------

   CUMULATIVE VOLUMES               L**3   RATES FOR THIS TIME STEP           L**3/T
   ------------------                      ------------------------

                                     IN                                         IN
                                     --                                         --
        PRECIPITATION =        2.0923D+08          PRECIPITATION =                  
           STREAMFLOW =                               STREAMFLOW =                  
     GW BOUNDARY FLOW =                         GW BOUNDARY FLOW =                  


                                    OUT                                        OUT
                                    ---                                        ---
   EVAPOTRANSPIRATION =        1.2534D+08     EVAPOTRANSPIRATION =        1142081.21
           STREAMFLOW =        3.2519D+07             STREAMFLOW =         445540.84
     GW BOUNDARY FLOW =                         GW BOUNDARY FLOW =                  

   INFLOWS - OUTFLOWS =        5.1364D+07     INFLOWS - OUTFLOWS =       -1587622.06
             --------                                   --------

 TOTAL STORAGE CHANGE =        4.8890D+07         STORAGE CHANGE =       -1613588.29
       --------------                             --------------
         LAND SURFACE =        4.1576D+07           LAND SURFACE =        -362260.72
            SOIL ZONE =        1.6937D+07              SOIL ZONE =        -552219.09
     UNSATURATED ZONE =       -1380129.10       UNSATURATED ZONE =          56516.59
       SATURATED ZONE =       -1.4166D+07         SATURATED ZONE =        -187773.56
                LAKES =        5923005.36                  LAKES =        -567851.50

 OVERALL BUDGET ERROR =        2473504.92           BUDGET ERROR =          25966.23


  PERCENT DISCREPANCY =              1.19    PERCENT DISCREPANCY =              1.62



1
 SUMMARY VOLUMETRIC BUDGET FOR GSFLOW 
 DATE: 01 13 1981              CUMULATIVE TIME STEP:     105
 MODFLOW STRESS PERIOD      1     CURRENT TIME STEP:     105     ITERATIONS:       3

 -----------------------------------------------------------------------------------

   CUMULATIVE VOLUMES               L**3   RATES FOR THIS TIME STEP           L**3/T
   ------------------                      ------------------------

                                     IN                                         IN
                                     --                                         --
        PRECIPITATION =        2.1223D+08          PRECIPITATION =                  
           STREAMFLOW =                               STREAMFLOW =                  
     GW BOUNDARY FLOW =                         GW BOUNDARY FLOW =                  


                                    OUT                                        OUT
                                    ---                                        ---
   EVAPOTRANSPIRATION =        1.3373D+08     EVAPOTRANSPIRATION =        1420748.35
           STREAMFLOW =        3.5650D+07             STREAMFLOW =         457521.16
     GW BOUNDARY FLOW =                         GW BOUNDARY FLOW =                  

   INFLOWS - OUTFLOWS =        4.2845D+07     INFLOWS - OUTFLOWS =       -1878269.51
             --------                                   --------

 TOTAL STORAGE CHANGE =        4.0233D+07         STORAGE CHANGE =       -1895566.20
       --------------                             --------------
         LAND SURFACE =        4.0089D+07           LAND SURFACE =        -485861.70
            SOIL ZONE =        1.4444D+07              SOIL ZONE =        -490218.46
     UNSATURATED ZONE =       -1280911.19       UNSATURATED ZONE =          -6485.33
       SATURATED ZONE =       -1.5400D+07         SATURATED ZONE =        -178751.47
                LAKES =        2380896.39                  LAKES =        -734249.25

 OVERALL BUDGET ERROR =        2611720.20           BUDGET ERROR =          17296.69


  PERCENT DISCREPANCY =              1.24    PERCENT DISCREPANCY =              0.92



1
 SUMMARY VOLUMETRIC BUDGET FOR GSFLOW 
 DATE: 01 20 1981              CUMULATIVE TIME STEP:     112
 MODFLOW STRESS PERIOD      1     CURRENT TIME STEP:     112     ITERATIONS:       9

 -----------------------------------------------------------------------------------

   CUMULATIVE VOLUMES               L**3   RATES FOR THIS TIME STEP           L**3/T
   ------------------                      ------------------------

                                     IN                                         IN
                                     --                                         --
        PRECIPITATION =        2.2423D+08          PRECIPITATION =        6001392.59
           STREAMFLOW =                               STREAMFLOW =                  
     GW BOUNDARY FLOW =                         GW BOUNDARY FLOW =                  


                                    OUT                                        OUT
                                    ---                                        ---
   EVAPOTRANSPIRATION =        1.4486D+08     EVAPOTRANSPIRATION =        1828628.43
           STREAMFLOW =        3.9241D+07             STREAMFLOW =         485521.72
     GW BOUNDARY FLOW =                         GW BOUNDARY FLOW =                  

   INFLOWS - OUTFLOWS =        4.0127D+07     INFLOWS - OUTFLOWS =        3687242.44
             --------                                   --------

 TOTAL STORAGE CHANGE =        3.7289D+07         STORAGE CHANGE =        3549911.44
       --------------                             --------------
         LAND SURFACE =        3.7521D+07           LAND SURFACE =         673026.73
            SOIL ZONE =        1.6061D+07              SOIL ZONE =        1354565.19
     UNSATURATED ZONE =       -1088606.15       UNSATURATED ZONE =          97712.61
       SATURATED ZONE =       -1.6114D+07         SATURATED ZONE =          49197.28
                LAKES =         909114.36                  LAKES =        1375409.62

 OVERALL BUDGET ERROR =        2838210.56           BUDGET ERROR =         137331.00


  PERCENT DISCREPANCY =              1.27    PERCENT DISCREPANCY =              2.31



1
 SUMMARY VOLUMETRIC BUDGET FOR GSFLOW 
 DATE: 01 27 1981              CUMULATIVE TIME STEP:     119
 MODFLOW STRESS PERIOD      1     CURRENT TIME STEP:     119     ITERATIONS:       3

 -----------------------------------------------------------------------------------

   CUMULATIVE VOLUMES               L**3   RATES FOR THIS TIME STEP           L**3/T
   ------------------                      ------------------------

                                     IN                                         IN
                                     --                                         --
        PRECIPITATION =        3.3525D+08          PRECIPITATION =        6.0014D+07
           STREAMFLOW =                               STREAMFLOW =                  
     GW BOUNDARY FLOW =                         GW BOUNDARY FLOW =                  


                                    OUT                                        OUT
                                    ---                                        ---
   EVAPOTRANSPIRATION =        1.5401D+08     EVAPOTRANSPIRATION =         669133.42
           STREAMFLOW =        4.1752D+07             STREAMFLOW =         345812.16
     GW BOUNDARY FLOW =                         GW BOUNDARY FLOW =                  

   INFLOWS - OUTFLOWS =        1.3949D+08     INFLOWS - OUTFLOWS =        5.8999D+07
             --------                                   --------

 TOTAL STORAGE CHANGE =        1.3610D+08         STORAGE CHANGE =        5.8691D+07
       --------------                             --------------
         LAND SURFACE =        1.0747D+08           LAND SURFACE =        4.1072D+07
            SOIL ZONE =        1.7902D+07              SOIL ZONE =        1620607.21
     UNSATURATED ZONE =        -591320.43       UNSATURATED ZONE =          99691.15
       SATURATED ZONE =       -1.6832D+07         SATURATED ZONE =         -40378.11
                LAKES =        2.8157D+07                  LAKES =        1.5939D+07

 OVERALL BUDGET ERROR =        3389732.70           BUDGET ERROR =         307928.73


  PERCENT DISCREPANCY =              1.02    PERCENT DISCREPANCY =              0.51



1
 SUMMARY VOLUMETRIC BUDGET FOR GSFLOW 
 DATE: 02 03 1981              CUMULATIVE TIME STEP:     126
 MODFLOW STRESS PERIOD      1     CURRENT TIME STEP:     126     ITERATIONS:      15

 -----------------------------------------------------------------------------------

   CUMULATIVE VOLUMES               L**3   RATES FOR THIS TIME STEP           L**3/T
   ------------------                      ------------------------

                                     IN                                         IN
                                     --                                         --
        PRECIPITATION =        4.0137D+08          PRECIPITATION =                  
           STREAMFLOW =                               STREAMFLOW =                  
     GW BOUNDARY FLOW =                         GW BOUNDARY FLOW =                  


                                    OUT                                        OUT
                                    ---                                        ---
   EVAPOTRANSPIRATION =        1.5768D+08     EVAPOTRANSPIRATION =         909453.07
           STREAMFLOW =        4.4232D+07             STREAMFLOW =         354891.78
     GW BOUNDARY FLOW =                         GW BOUNDARY FLOW =                  

   INFLOWS - OUTFLOWS =        1.9945D+08     INFLOWS - OUTFLOWS =       -1264344.85
             --------                                   --------

 TOTAL STORAGE CHANGE =        1.9609D+08         STORAGE CHANGE =       -1275993.34
       --------------                             --------------
         LAND SURFACE =        1.5382D+08           LAND SURFACE =        -497697.44
            SOIL ZONE =        1.6930D+07              SOIL ZONE =        -133793.88
     UNSATURATED ZONE =        -294238.51       UNSATURATED ZONE =           7247.02
       SATURATED ZONE =       -1.8021D+07         SATURATED ZONE =        -174354.56
                LAKES =        4.3661D+07                  LAKES =        -477394.47

 OVERALL BUDGET ERROR =        3355272.20           BUDGET ERROR =          11648.48


  PERCENT DISCREPANCY =              0.84    PERCENT DISCREPANCY =              0.92



1
 SUMMARY VOLUMETRIC BUDGET FOR GSFLOW 
 DATE: 02 10 1981              CUMULATIVE TIME STEP:     133
 MODFLOW STRESS PERIOD      1     CURRENT TIME STEP:     133     ITERATIONS:       6

 -----------------------------------------------------------------------------------

   CUMULATIVE VOLUMES               L**3   RATES FOR THIS TIME STEP           L**3/T
   ------------------                      ------------------------

                                     IN                                         IN
                                     --                                         --
        PRECIPITATION =        4.1375D+08          PRECIPITATION =        3095932.43
           STREAMFLOW =                               STREAMFLOW =                  
     GW BOUNDARY FLOW =                         GW BOUNDARY FLOW =                  


                                    OUT                                        OUT
                                    ---                                        ---
   EVAPOTRANSPIRATION =        1.6316D+08     EVAPOTRANSPIRATION =         589052.92
           STREAMFLOW =        4.6626D+07             STREAMFLOW =         340304.91
     GW BOUNDARY FLOW =                         GW BOUNDARY FLOW =                  

   INFLOWS - OUTFLOWS =        2.0396D+08     INFLOWS - OUTFLOWS =        2166574.60
             --------                                   --------

 TOTAL STORAGE CHANGE =        2.0047D+08         STORAGE CHANGE =        2149578.70
       --------------                             --------------
         LAND SURFACE =        1.5941D+08           LAND SURFACE =        1678271.43
            SOIL ZONE =        1.6826D+07              SOIL ZONE =         185536.90
     UNSATURATED ZONE =        -371589.02       UNSATURATED ZONE =         -12378.68
       SATURATED ZONE =       -1.9145D+07         SATURATED ZONE =        -149632.09
                LAKES =        4.3754D+07                  LAKES =         447781.16

 OVERALL BUDGET ERROR =        3488090.36           BUDGET ERROR =          16995.90


  PERCENT DISCREPANCY =              0.85    PERCENT DISCREPANCY =              0.55



1
 SUMMARY VOLUMETRIC BUDGET FOR GSFLOW 
 DATE: 02 17 1981              CUMULATIVE TIME STEP:     140
 MODFLOW STRESS PERIOD      1     CURRENT TIME STEP:     140     ITERATIONS:       6

 -----------------------------------------------------------------------------------

   CUMULATIVE VOLUMES               L**3   RATES FOR THIS TIME STEP           L**3/T
   ------------------                      ------------------------

                                     IN                                         IN
                                     --                                         --
        PRECIPITATION =        4.6328D+08          PRECIPITATION =                  
           STREAMFLOW =                               STREAMFLOW =                  
     GW BOUNDARY FLOW =                         GW BOUNDARY FLOW =                  


                                    OUT                                        OUT
                                    ---                                        ---
   EVAPOTRANSPIRATION =        1.7462D+08     EVAPOTRANSPIRATION =        2683809.75
           STREAMFLOW =        4.8976D+07             STREAMFLOW =         285389.12
     GW BOUNDARY FLOW =                         GW BOUNDARY FLOW =                  

   INFLOWS - OUTFLOWS =        2.3968D+08     INFLOWS - OUTFLOWS =       -2969198.88
             --------                                   --------

 TOTAL STORAGE CHANGE =        2.3574D+08         STORAGE CHANGE =       -2901515.33
       --------------                             --------------
         LAND SURFACE =        1.7506D+08           LAND SURFACE =       -2254149.28
            SOIL ZONE =        2.3375D+07              SOIL ZONE =         -33722.16
     UNSATURATED ZONE =         212608.81       UNSATURATED ZONE =          90159.97
       SATURATED ZONE =       -1.9392D+07         SATURATED ZONE =        -114387.05
                LAKES =        5.6487D+07                  LAKES =        -589416.81

 OVERALL BUDGET ERROR =        3946407.98           BUDGET ERROR =         -67683.55


  PERCENT DISCREPANCY =              0.86    PERCENT DISCREPANCY =             -2.31



1
 SUMMARY VOLUMETRIC BUDGET FOR GSFLOW 
 DATE: 02 24 1981              CUMULATIVE TIME STEP:     147
 MODFLOW STRESS PERIOD      1     CURRENT TIME STEP:     147     ITERATIONS:      12

 -----------------------------------------------------------------------------------

   CUMULATIVE VOLUMES               L**3   RATES FOR THIS TIME STEP           L**3/T
   ------------------                      ------------------------

                                     IN                                         IN
                                     --                                         --
        PRECIPITATION =        4.8805D+08          PRECIPITATION =        1.8576D+07
           STREAMFLOW =                               STREAMFLOW =                  
     GW BOUNDARY FLOW =                         GW BOUNDARY FLOW =                  


                                    OUT                                        OUT
                                    ---                                        ---
   EVAPOTRANSPIRATION =        1.8831D+08     EVAPOTRANSPIRATION =        1370625.40
           STREAMFLOW =        5.0060D+07             STREAMFLOW =         143123.94
     GW BOUNDARY FLOW =                         GW BOUNDARY FLOW =                  

   INFLOWS - OUTFLOWS =        2.4968D+08     INFLOWS - OUTFLOWS =        1.7062D+07
             --------                                   --------

 TOTAL STORAGE CHANGE =        2.4513D+08         STORAGE CHANGE =        1.7035D+07
       --------------                             --------------
         LAND SURFACE =        1.7597D+08           LAND SURFACE =        1.1072D+07
            SOIL ZONE =        2.5720D+07              SOIL ZONE =         477714.19
     UNSATURATED ZONE =       -1596498.53       UNSATURATED ZONE =         262600.80
       SATURATED ZONE =       -1.7899D+07         SATURATED ZONE =          21672.97
                LAKES =        6.2936D+07                  LAKES =        5201100.00

 OVERALL BUDGET ERROR =        4548570.08           BUDGET ERROR =          26671.24


  PERCENT DISCREPANCY =              0.94    PERCENT DISCREPANCY =              0.14



1
 SUMMARY VOLUMETRIC BUDGET FOR GSFLOW 
 DATE: 03 03 1981              CUMULATIVE TIME STEP:     154
 MODFLOW STRESS PERIOD      1     CURRENT TIME STEP:     154     ITERATIONS:      16

 -----------------------------------------------------------------------------------

   CUMULATIVE VOLUMES               L**3   RATES FOR THIS TIME STEP           L**3/T
   ------------------                      ------------------------

                                     IN                                         IN
                                     --                                         --
        PRECIPITATION =        5.0056D+08          PRECIPITATION =                  
           STREAMFLOW =                               STREAMFLOW =                  
     GW BOUNDARY FLOW =                         GW BOUNDARY FLOW =                  


                                    OUT                                        OUT
                                    ---                                        ---
   EVAPOTRANSPIRATION =        1.9705D+08     EVAPOTRANSPIRATION =        2227417.92
           STREAMFLOW =        5.1106D+07             STREAMFLOW =         161574.81
     GW BOUNDARY FLOW =                         GW BOUNDARY FLOW =                  

   INFLOWS - OUTFLOWS =        2.5241D+08     INFLOWS - OUTFLOWS =       -2388992.73
             --------                                   --------

 TOTAL STORAGE CHANGE =        2.4757D+08         STORAGE CHANGE =       -2423877.31
       --------------                             --------------
         LAND SURFACE =        1.7885D+08           LAND SURFACE =       -1096145.58
            SOIL ZONE =        2.3958D+07              SOIL ZONE =        -357056.52
     UNSATURATED ZONE =        -953581.90       UNSATURATED ZONE =         -18472.30
       SATURATED ZONE =       -1.9108D+07         SATURATED ZONE =        -178704.97
                LAKES =        6.4831D+07                  LAKES =        -773497.94

 OVERALL BUDGET ERROR =        4833317.32           BUDGET ERROR =          34884.58


  PERCENT DISCREPANCY =              0.97    PERCENT DISCREPANCY =              1.45



1
 SUMMARY VOLUMETRIC BUDGET FOR GSFLOW 
 DATE: 03 10 1981              CUMULATIVE TIME STEP:     161
 MODFLOW STRESS PERIOD      1     CURRENT TIME STEP:     161     ITERATIONS:      42

 -----------------------------------------------------------------------------------

   CUMULATIVE VOLUMES               L**3   RATES FOR THIS TIME STEP           L**3/T
   ------------------                      ------------------------

                                     IN                                         IN
                                     --                                         --
        PRECIPITATION =        5.0378D+08          PRECIPITATION =        3221591.34
           STREAMFLOW =                               STREAMFLOW =                  
     GW BOUNDARY FLOW =                         GW BOUNDARY FLOW =                  


                                    OUT                                        OUT
                                    ---                                        ---
   EVAPOTRANSPIRATION =        2.1466D+08     EVAPOTRANSPIRATION =        1954830.07
           STREAMFLOW =        5.2250D+07             STREAMFLOW =         163871.41
     GW BOUNDARY FLOW =                         GW BOUNDARY FLOW =                  

   INFLOWS - OUTFLOWS =        2.3688D+08     INFLOWS - OUTFLOWS =        1102889.86
             --------                                   --------

 TOTAL STORAGE CHANGE =        2.3181D+08         STORAGE CHANGE =        1073966.23
       --------------                             --------------
         LAND SURFACE =        1.6676D+08           LAND SURFACE =       -1607197.08
            SOIL ZONE =        2.4476D+07              SOIL ZONE =        1220714.24
     UNSATURATED ZONE =       -1142921.17       UNSATURATED ZONE =          70107.63
       SATURATED ZONE =       -1.9761D+07         SATURATED ZONE =          96178.81
                LAKES =        6.1487D+07                  LAKES =        1294162.62

 OVERALL BUDGET ERROR =        5062036.32           BUDGET ERROR =          28923.62


  PERCENT DISCREPANCY =              1.01    PERCENT DISCREPANCY =              0.90



1
 SUMMARY VOLUMETRIC BUDGET FOR GSFLOW 
 DATE: 03 17 1981              CUMULATIVE TIME STEP:     168
 MODFLOW STRESS PERIOD      1     CURRENT TIME STEP:     168     ITERATIONS:      33

 -----------------------------------------------------------------------------------

   CUMULATIVE VOLUMES               L**3   RATES FOR THIS TIME STEP           L**3/T
   ------------------                      ------------------------

                                     IN                                         IN
                                     --                                         --
        PRECIPITATION =        5.1345D+08          PRECIPITATION =        3221591.34
           STREAMFLOW =                               STREAMFLOW =                  
     GW BOUNDARY FLOW =                         GW BOUNDARY FLOW =                  


                                    OUT                                        OUT
                                    ---                                        ---
   EVAPOTRANSPIRATION =        2.2971D+08     EVAPOTRANSPIRATION =        1072467.16
           STREAMFLOW =        5.3446D+07             STREAMFLOW =         174561.31
     GW BOUNDARY FLOW =                         GW BOUNDARY FLOW =                  

   INFLOWS - OUTFLOWS =        2.3029D+08     INFLOWS - OUTFLOWS =        1974562.86
             --------                                   --------

 TOTAL STORAGE CHANGE =        2.2496D+08         STORAGE CHANGE =        1942108.91
       --------------                             --------------
         LAND SURFACE =        1.6298D+08           LAND SURFACE =        1567731.44
            SOIL ZONE =        2.3598D+07              SOIL ZONE =           4740.34
     UNSATURATED ZONE =       -1105782.18       UNSATURATED ZONE =        -136293.50
       SATURATED ZONE =       -2.0569D+07         SATURATED ZONE =         -10864.11
                LAKES =        6.0053D+07                  LAKES =         516794.75

 OVERALL BUDGET ERROR =        5334670.50           BUDGET ERROR =          32453.95


  PERCENT DISCREPANCY =              1.04    PERCENT DISCREPANCY =              1.01



1
 SUMMARY VOLUMETRIC BUDGET FOR GSFLOW 
 DATE: 03 24 1981              CUMULATIVE TIME STEP:     175
 MODFLOW STRESS PERIOD      1     CURRENT TIME STEP:     175     ITERATIONS:      17

 -----------------------------------------------------------------------------------

   CUMULATIVE VOLUMES               L**3   RATES FOR THIS TIME STEP           L**3/T
   ------------------                      ------------------------

                                     IN                                         IN
                                     --                                         --
        PRECIPITATION =        5.7144D+08          PRECIPITATION =        6443182.67
           STREAMFLOW =                               STREAMFLOW =                  
     GW BOUNDARY FLOW =                         GW BOUNDARY FLOW =                  


                                    OUT                                        OUT
                                    ---                                        ---
   EVAPOTRANSPIRATION =        2.4407D+08     EVAPOTRANSPIRATION =        1744389.67
           STREAMFLOW =        5.4582D+07             STREAMFLOW =         164600.05
     GW BOUNDARY FLOW =                         GW BOUNDARY FLOW =                  

   INFLOWS - OUTFLOWS =        2.7279D+08     INFLOWS - OUTFLOWS =        4534192.95
             --------                                   --------

 TOTAL STORAGE CHANGE =        2.6734D+08         STORAGE CHANGE =        4492509.03
       --------------                             --------------
         LAND SURFACE =        1.9121D+08           LAND SURFACE =        1648492.07
            SOIL ZONE =        2.5716D+07              SOIL ZONE =         747348.35
     UNSATURATED ZONE =        -755673.40       UNSATURATED ZONE =         103374.14
       SATURATED ZONE =       -2.1144D+07         SATURATED ZONE =          41071.09
                LAKES =        7.2307D+07                  LAKES =        1952223.38

 OVERALL BUDGET ERROR =        5449319.34           BUDGET ERROR =          41683.92


  PERCENT DISCREPANCY =              0.96    PERCENT DISCREPANCY =              0.65



1
 SUMMARY VOLUMETRIC BUDGET FOR GSFLOW 
 DATE: 03 31 1981              CUMULATIVE TIME STEP:     182
 MODFLOW STRESS PERIOD      1     CURRENT TIME STEP:     182     ITERATIONS:       7

 -----------------------------------------------------------------------------------

   CUMULATIVE VOLUMES               L**3   RATES FOR THIS TIME STEP           L**3/T
   ------------------                      ------------------------

                                     IN                                         IN
                                     --                                         --
        PRECIPITATION =        6.3587D+08          PRECIPITATION =        6443182.67
           STREAMFLOW =                               STREAMFLOW =                  
     GW BOUNDARY FLOW =                         GW BOUNDARY FLOW =                  


                                    OUT                                        OUT
                                    ---                                        ---
   EVAPOTRANSPIRATION =        2.5898D+08     EVAPOTRANSPIRATION =        1164596.83
           STREAMFLOW =        5.5754D+07             STREAMFLOW =         154064.84
     GW BOUNDARY FLOW =                         GW BOUNDARY FLOW =                  

   INFLOWS - OUTFLOWS =        3.2113D+08     INFLOWS - OUTFLOWS =        5124521.00
             --------                                   --------

 TOTAL STORAGE CHANGE =        3.1556D+08         STORAGE CHANGE =        5072111.60
       --------------                             --------------
         LAND SURFACE =        2.1723D+08           LAND SURFACE =        2850911.58
            SOIL ZONE =        2.7307D+07              SOIL ZONE =         452564.40
     UNSATURATED ZONE =       -4436639.66       UNSATURATED ZONE =         131082.90
       SATURATED ZONE =       -1.7919D+07         SATURATED ZONE =        -107940.90
                LAKES =        9.3375D+07                  LAKES =        1745493.62

 OVERALL BUDGET ERROR =        5576730.05           BUDGET ERROR =          52409.40


  PERCENT DISCREPANCY =              0.88    PERCENT DISCREPANCY =              0.82



1
 SUMMARY VOLUMETRIC BUDGET FOR GSFLOW 
 DATE: 04 07 1981              CUMULATIVE TIME STEP:     189
 MODFLOW STRESS PERIOD      1     CURRENT TIME STEP:     189     ITERATIONS:      51

 -----------------------------------------------------------------------------------

   CUMULATIVE VOLUMES               L**3   RATES FOR THIS TIME STEP           L**3/T
   ------------------                      ------------------------

                                     IN                                         IN
                                     --                                         --
        PRECIPITATION =        6.5328D+08          PRECIPITATION =                  
           STREAMFLOW =                               STREAMFLOW =                  
     GW BOUNDARY FLOW =                         GW BOUNDARY FLOW =                  


                                    OUT                                        OUT
                                    ---                                        ---
   EVAPOTRANSPIRATION =        2.8286D+08     EVAPOTRANSPIRATION =        4388534.17
           STREAMFLOW =        5.6883D+07             STREAMFLOW =         203100.11
     GW BOUNDARY FLOW =                         GW BOUNDARY FLOW =                  

   INFLOWS - OUTFLOWS =        3.1354D+08     INFLOWS - OUTFLOWS =       -4591634.28
             --------                                   --------

 TOTAL STORAGE CHANGE =        3.0772D+08         STORAGE CHANGE =       -4618128.48
       --------------                             --------------
         LAND SURFACE =        1.9636D+08           LAND SURFACE =       -6815335.05
            SOIL ZONE =        2.8264D+07              SOIL ZONE =          67584.56
     UNSATURATED ZONE =       -3275641.56       UNSATURATED ZONE =         231867.64
       SATURATED ZONE =       -1.6861D+07         SATURATED ZONE =         275429.62
                LAKES =        1.0324D+08                  LAKES =        1622324.75

 OVERALL BUDGET ERROR =        5817514.98           BUDGET ERROR =          26494.19


  PERCENT DISCREPANCY =              0.89    PERCENT DISCREPANCY =              0.58



1
 SUMMARY VOLUMETRIC BUDGET FOR GSFLOW 
 DATE: 04 14 1981              CUMULATIVE TIME STEP:     196
 MODFLOW STRESS PERIOD      1     CURRENT TIME STEP:     196     ITERATIONS:      27

 -----------------------------------------------------------------------------------

   CUMULATIVE VOLUMES               L**3   RATES FOR THIS TIME STEP           L**3/T
   ------------------                      ------------------------

                                     IN                                         IN
                                     --                                         --
        PRECIPITATION =        6.5328D+08          PRECIPITATION =                  
           STREAMFLOW =                               STREAMFLOW =                  
     GW BOUNDARY FLOW =                         GW BOUNDARY FLOW =                  


                                    OUT                                        OUT
                                    ---                                        ---
   EVAPOTRANSPIRATION =        3.1306D+08     EVAPOTRANSPIRATION =        5177137.06
           STREAMFLOW =        5.8130D+07             STREAMFLOW =         172000.45
     GW BOUNDARY FLOW =                         GW BOUNDARY FLOW =                  

   INFLOWS - OUTFLOWS =        2.8209D+08     INFLOWS - OUTFLOWS =       -5349137.52
             --------                                   --------

 TOTAL STORAGE CHANGE =        2.7607D+08         STORAGE CHANGE =       -5357596.60
       --------------                             --------------
         LAND SURFACE =        1.5009D+08           LAND SURFACE =       -7639635.78
            SOIL ZONE =        2.4303D+07              SOIL ZONE =        -855158.43
     UNSATURATED ZONE =       -1260000.36       UNSATURATED ZONE =         325425.98
       SATURATED ZONE =       -1.5236D+07         SATURATED ZONE =         277659.12
                LAKES =        1.1817D+08                  LAKES =        2534112.50

 OVERALL BUDGET ERROR =        6024012.55           BUDGET ERROR =           8459.09


  PERCENT DISCREPANCY =              0.93    PERCENT DISCREPANCY =              0.16



1
 SUMMARY VOLUMETRIC BUDGET FOR GSFLOW 
 DATE: 04 21 1981              CUMULATIVE TIME STEP:     203
 MODFLOW STRESS PERIOD      1     CURRENT TIME STEP:     203     ITERATIONS:      23

 -----------------------------------------------------------------------------------

   CUMULATIVE VOLUMES               L**3   RATES FOR THIS TIME STEP           L**3/T
   ------------------                      ------------------------

                                     IN                                         IN
                                     --                                         --
        PRECIPITATION =        6.7418D+08          PRECIPITATION =                  
           STREAMFLOW =                               STREAMFLOW =                  
     GW BOUNDARY FLOW =                         GW BOUNDARY FLOW =                  


                                    OUT                                        OUT
                                    ---                                        ---
   EVAPOTRANSPIRATION =        3.4315D+08     EVAPOTRANSPIRATION =        5667607.05
           STREAMFLOW =        5.9345D+07             STREAMFLOW =         169579.17
     GW BOUNDARY FLOW =                         GW BOUNDARY FLOW =                  

   INFLOWS - OUTFLOWS =        2.7169D+08     INFLOWS - OUTFLOWS =       -5837186.22
             --------                                   --------

 TOTAL STORAGE CHANGE =        2.6592D+08         STORAGE CHANGE =       -5842459.76
       --------------                             --------------
         LAND SURFACE =        1.2707D+08           LAND SURFACE =       -3302133.41
            SOIL ZONE =        2.2510D+07              SOIL ZONE =       -2016013.54
     UNSATURATED ZONE =         365352.63       UNSATURATED ZONE =         141820.30
       SATURATED ZONE =       -1.5284D+07         SATURATED ZONE =         -77293.73
                LAKES =        1.3126D+08                  LAKES =        -588839.38

 OVERALL BUDGET ERROR =        5765417.95           BUDGET ERROR =           5273.54


  PERCENT DISCREPANCY =              0.86    PERCENT DISCREPANCY =              0.09



1
 SUMMARY VOLUMETRIC BUDGET FOR GSFLOW 
 DATE: 04 28 1981              CUMULATIVE TIME STEP:     210
 MODFLOW STRESS PERIOD      1     CURRENT TIME STEP:     210     ITERATIONS:      40

 -----------------------------------------------------------------------------------

   CUMULATIVE VOLUMES               L**3   RATES FOR THIS TIME STEP           L**3/T
   ------------------                      ------------------------

                                     IN                                         IN
                                     --                                         --
        PRECIPITATION =        6.8114D+08          PRECIPITATION =                  
           STREAMFLOW =                               STREAMFLOW =                  
     GW BOUNDARY FLOW =                         GW BOUNDARY FLOW =                  


                                    OUT                                        OUT
                                    ---                                        ---
   EVAPOTRANSPIRATION =        3.8509D+08     EVAPOTRANSPIRATION =        5756714.53
           STREAMFLOW =        6.0557D+07             STREAMFLOW =         169029.33
     GW BOUNDARY FLOW =                         GW BOUNDARY FLOW =                  

   INFLOWS - OUTFLOWS =        2.3549D+08     INFLOWS - OUTFLOWS =       -5925743.86
             --------                                   --------

 TOTAL STORAGE CHANGE =        2.2968D+08         STORAGE CHANGE =       -5932796.13
       --------------                             --------------
         LAND SURFACE =        1.0063D+08           LAND SURFACE =       -4252967.18
            SOIL ZONE =        1.2685D+07              SOIL ZONE =       -1643395.01
     UNSATURATED ZONE =         488310.08       UNSATURATED ZONE =         -54727.20
       SATURATED ZONE =       -1.5336D+07         SATURATED ZONE =          88762.61
                LAKES =        1.3121D+08                  LAKES =         -70469.35

 OVERALL BUDGET ERROR =        5815954.92           BUDGET ERROR =           7052.28


  PERCENT DISCREPANCY =              0.86    PERCENT DISCREPANCY =              0.12



1
 SUMMARY VOLUMETRIC BUDGET FOR GSFLOW 
 DATE: 05 05 1981              CUMULATIVE TIME STEP:     217
 MODFLOW STRESS PERIOD      1     CURRENT TIME STEP:     217     ITERATIONS:      52

 -----------------------------------------------------------------------------------

   CUMULATIVE VOLUMES               L**3   RATES FOR THIS TIME STEP           L**3/T
   ------------------                      ------------------------

                                     IN                                         IN
                                     --                                         --
        PRECIPITATION =        6.8811D+08          PRECIPITATION =                  
           STREAMFLOW =                               STREAMFLOW =                  
     GW BOUNDARY FLOW =                         GW BOUNDARY FLOW =                  


                                    OUT                                        OUT
                                    ---                                        ---
   EVAPOTRANSPIRATION =        4.2394D+08     EVAPOTRANSPIRATION =        3889934.62
           STREAMFLOW =        6.1774D+07             STREAMFLOW =         173796.00
     GW BOUNDARY FLOW =                         GW BOUNDARY FLOW =                  

   INFLOWS - OUTFLOWS =        2.0239D+08     INFLOWS - OUTFLOWS =       -4063730.62
             --------                                   --------

 TOTAL STORAGE CHANGE =        1.9652D+08         STORAGE CHANGE =       -4059480.59
       --------------                             --------------
         LAND SURFACE =        7.3996D+07           LAND SURFACE =       -3142859.37
            SOIL ZONE =        6163386.25              SOIL ZONE =        -903891.89
     UNSATURATED ZONE =       -1056118.54       UNSATURATED ZONE =        -104601.66
       SATURATED ZONE =       -1.4533D+07         SATURATED ZONE =         -30782.94
                LAKES =        1.3195D+08                  LAKES =         122655.28

 OVERALL BUDGET ERROR =        5870627.72           BUDGET ERROR =          -4250.03


  PERCENT DISCREPANCY =              0.86    PERCENT DISCREPANCY =             -0.10



1
 SUMMARY VOLUMETRIC BUDGET FOR GSFLOW 
 DATE: 05 12 1981              CUMULATIVE TIME STEP:     224
 MODFLOW STRESS PERIOD      1     CURRENT TIME STEP:     224     ITERATIONS:      59

 -----------------------------------------------------------------------------------

   CUMULATIVE VOLUMES               L**3   RATES FOR THIS TIME STEP           L**3/T
   ------------------                      ------------------------

                                     IN                                         IN
                                     --                                         --
        PRECIPITATION =        6.8811D+08          PRECIPITATION =                  
           STREAMFLOW =                               STREAMFLOW =                  
     GW BOUNDARY FLOW =                         GW BOUNDARY FLOW =                  


                                    OUT                                        OUT
                                    ---                                        ---
   EVAPOTRANSPIRATION =        4.5346D+08     EVAPOTRANSPIRATION =        4688552.27
           STREAMFLOW =        6.2971D+07             STREAMFLOW =         168853.17
     GW BOUNDARY FLOW =                         GW BOUNDARY FLOW =                  

   INFLOWS - OUTFLOWS =        1.7168D+08     INFLOWS - OUTFLOWS =       -4857405.44
             --------                                   --------

 TOTAL STORAGE CHANGE =        1.6578D+08         STORAGE CHANGE =       -4858305.93
       --------------                             --------------
         LAND SURFACE =        4.9094D+07           LAND SURFACE =       -3677638.46
            SOIL ZONE =        -355227.53              SOIL ZONE =        -936810.41
     UNSATURATED ZONE =       -3762876.53       UNSATURATED ZONE =        -941996.07
       SATURATED ZONE =       -1.3229D+07         SATURATED ZONE =         522101.34
                LAKES =        1.3403D+08                  LAKES =         176037.67

 OVERALL BUDGET ERROR =        5895625.27           BUDGET ERROR =            900.49


  PERCENT DISCREPANCY =              0.86    PERCENT DISCREPANCY =              0.02



1
 SUMMARY VOLUMETRIC BUDGET FOR GSFLOW 
 DATE: 05 19 1981              CUMULATIVE TIME STEP:     231
 MODFLOW STRESS PERIOD      1     CURRENT TIME STEP:     231     ITERATIONS:      48

 -----------------------------------------------------------------------------------

   CUMULATIVE VOLUMES               L**3   RATES FOR THIS TIME STEP           L**3/T
   ------------------                      ------------------------

                                     IN                                         IN
                                     --                                         --
        PRECIPITATION =        7.4671D+08          PRECIPITATION =        3447112.78
           STREAMFLOW =                               STREAMFLOW =                  
     GW BOUNDARY FLOW =                         GW BOUNDARY FLOW =                  


                                    OUT                                        OUT
                                    ---                                        ---
   EVAPOTRANSPIRATION =        4.7187D+08     EVAPOTRANSPIRATION =        1743206.28
           STREAMFLOW =        6.4161D+07             STREAMFLOW =         172527.06
     GW BOUNDARY FLOW =                         GW BOUNDARY FLOW =                  

   INFLOWS - OUTFLOWS =        2.1068D+08     INFLOWS - OUTFLOWS =        1531379.43
             --------                                   --------

 TOTAL STORAGE CHANGE =        2.0495D+08         STORAGE CHANGE =        1529374.48
       --------------                             --------------
         LAND SURFACE =        5.2560D+07           LAND SURFACE =       -3316295.73
            SOIL ZONE =        1.0612D+07              SOIL ZONE =        1983403.26
     UNSATURATED ZONE =       -3938311.16       UNSATURATED ZONE =          50046.66
       SATURATED ZONE =       -1.2915D+07         SATURATED ZONE =          24123.05
                LAKES =        1.5863D+08                  LAKES =        2788097.25

 OVERALL BUDGET ERROR =        5732093.06           BUDGET ERROR =           2004.95


  PERCENT DISCREPANCY =              0.77    PERCENT DISCREPANCY =              0.06



1
 SUMMARY VOLUMETRIC BUDGET FOR GSFLOW 
 DATE: 05 26 1981              CUMULATIVE TIME STEP:     238
 MODFLOW STRESS PERIOD      1     CURRENT TIME STEP:     238     ITERATIONS:      52

 -----------------------------------------------------------------------------------

   CUMULATIVE VOLUMES               L**3   RATES FOR THIS TIME STEP           L**3/T
   ------------------                      ------------------------

                                     IN                                         IN
                                     --                                         --
        PRECIPITATION =        7.7429D+08          PRECIPITATION =        1.7236D+07
           STREAMFLOW =                               STREAMFLOW =                  
     GW BOUNDARY FLOW =                         GW BOUNDARY FLOW =                  


                                    OUT                                        OUT
                                    ---                                        ---
   EVAPOTRANSPIRATION =        5.0321D+08     EVAPOTRANSPIRATION =        2634301.42
           STREAMFLOW =        6.5363D+07             STREAMFLOW =         180466.05
     GW BOUNDARY FLOW =                         GW BOUNDARY FLOW =                  

   INFLOWS - OUTFLOWS =        2.0572D+08     INFLOWS - OUTFLOWS =        1.4421D+07
             --------                                   --------

 TOTAL STORAGE CHANGE =        1.9998D+08         STORAGE CHANGE =        1.4421D+07
       --------------                             --------------
         LAND SURFACE =        3.5549D+07           LAND SURFACE =        -311649.67
            SOIL ZONE =        9182952.71              SOIL ZONE =        4565995.09
     UNSATURATED ZONE =       -3824389.30       UNSATURATED ZONE =          69054.72
       SATURATED ZONE =       -1.2385D+07         SATURATED ZONE =         580125.44
                LAKES =        1.7145D+08                  LAKES =        9517863.00

 OVERALL BUDGET ERROR =        5742985.94           BUDGET ERROR =           -592.39


  PERCENT DISCREPANCY =              0.74    PERCENT DISCREPANCY =             -0.00



1
 SUMMARY VOLUMETRIC BUDGET FOR GSFLOW 
 DATE: 06 02 1981              CUMULATIVE TIME STEP:     245
 MODFLOW STRESS PERIOD      1     CURRENT TIME STEP:     245     ITERATIONS:      37

 -----------------------------------------------------------------------------------

   CUMULATIVE VOLUMES               L**3   RATES FOR THIS TIME STEP           L**3/T
   ------------------                      ------------------------

                                     IN                                         IN
                                     --                                         --
        PRECIPITATION =        7.7429D+08          PRECIPITATION =                  
           STREAMFLOW =                               STREAMFLOW =                  
     GW BOUNDARY FLOW =                         GW BOUNDARY FLOW =                  


                                    OUT                                        OUT
                                    ---                                        ---
   EVAPOTRANSPIRATION =        5.4446D+08     EVAPOTRANSPIRATION =        5931015.08
           STREAMFLOW =        6.6583D+07             STREAMFLOW =         178725.95
     GW BOUNDARY FLOW =                         GW BOUNDARY FLOW =                  

   INFLOWS - OUTFLOWS =        1.6324D+08     INFLOWS - OUTFLOWS =       -6109741.03
             --------                                   --------

 TOTAL STORAGE CHANGE =        1.5751D+08         STORAGE CHANGE =       -6104628.84
       --------------                             --------------
         LAND SURFACE =        2.1595D+07           LAND SURFACE =       -1680702.74
            SOIL ZONE =       -6626419.38              SOIL ZONE =       -1910234.09
     UNSATURATED ZONE =       -8589659.27       UNSATURATED ZONE =        -217585.32
       SATURATED ZONE =       -1.0808D+07         SATURATED ZONE =        -227121.83
                LAKES =        1.6194D+08                  LAKES =       -2068984.88

 OVERALL BUDGET ERROR =        5728718.62           BUDGET ERROR =          -5112.19


  PERCENT DISCREPANCY =              0.74    PERCENT DISCREPANCY =             -0.08



1
 SUMMARY VOLUMETRIC BUDGET FOR GSFLOW 
 DATE: 06 09 1981              CUMULATIVE TIME STEP:     252
 MODFLOW STRESS PERIOD      1     CURRENT TIME STEP:     252     ITERATIONS:      50

 -----------------------------------------------------------------------------------

   CUMULATIVE VOLUMES               L**3   RATES FOR THIS TIME STEP           L**3/T
   ------------------                      ------------------------

                                     IN                                         IN
                                     --                                         --
        PRECIPITATION =        7.7752D+08          PRECIPITATION =                  
           STREAMFLOW =                               STREAMFLOW =                  
     GW BOUNDARY FLOW =                         GW BOUNDARY FLOW =                  


                                    OUT                                        OUT
                                    ---                                        ---
   EVAPOTRANSPIRATION =        5.8239D+08     EVAPOTRANSPIRATION =        5628375.17
           STREAMFLOW =        6.7826D+07             STREAMFLOW =         203133.83
     GW BOUNDARY FLOW =                         GW BOUNDARY FLOW =                  

   INFLOWS - OUTFLOWS =        1.2730D+08     INFLOWS - OUTFLOWS =       -5831508.99
             --------                                   --------

 TOTAL STORAGE CHANGE =        1.2156D+08         STORAGE CHANGE =       -5835464.17
       --------------                             --------------
         LAND SURFACE =        1.1147D+07           LAND SURFACE =       -1086014.00
            SOIL ZONE =       -1.7377D+07              SOIL ZONE =       -1809104.75
     UNSATURATED ZONE =       -1.0172D+07       UNSATURATED ZONE =        -275583.04
       SATURATED ZONE =       -1.1984D+07         SATURATED ZONE =        -221330.88
                LAKES =        1.4995D+08                  LAKES =       -2443431.50

 OVERALL BUDGET ERROR =        5743257.73           BUDGET ERROR =           3955.17


  PERCENT DISCREPANCY =              0.74    PERCENT DISCREPANCY =              0.07



1
 SUMMARY VOLUMETRIC BUDGET FOR GSFLOW 
 DATE: 06 16 1981              CUMULATIVE TIME STEP:     259
 MODFLOW STRESS PERIOD      1     CURRENT TIME STEP:     259     ITERATIONS:      28

 -----------------------------------------------------------------------------------

   CUMULATIVE VOLUMES               L**3   RATES FOR THIS TIME STEP           L**3/T
   ------------------                      ------------------------

                                     IN                                         IN
                                     --                                         --
        PRECIPITATION =        7.7752D+08          PRECIPITATION =                  
           STREAMFLOW =                               STREAMFLOW =                  
     GW BOUNDARY FLOW =                         GW BOUNDARY FLOW =                  


                                    OUT                                        OUT
                                    ---                                        ---
   EVAPOTRANSPIRATION =        6.1155D+08     EVAPOTRANSPIRATION =        4952050.17
           STREAMFLOW =        7.0934D+07             STREAMFLOW =         702199.94
     GW BOUNDARY FLOW =                         GW BOUNDARY FLOW =                  

   INFLOWS - OUTFLOWS =        9.5039D+07     INFLOWS - OUTFLOWS =       -5654250.11
             --------                                   --------

 TOTAL STORAGE CHANGE =        8.9272D+07         STORAGE CHANGE =       -5658147.69
       --------------                             --------------
[...]
       SATURATED ZONE =       -6.7784D+07         SATURATED ZONE =        -200204.89
                LAKES =        7.0935D+08                  LAKES =       -4153776.00

 OVERALL BUDGET ERROR =        3.0926D+07           BUDGET ERROR =          20088.69


  PERCENT DISCREPANCY =              0.57    PERCENT DISCREPANCY =              0.44



1
 SUMMARY VOLUMETRIC BUDGET FOR GSFLOW 
 DATE: 11 29 1983              CUMULATIVE TIME STEP:    1155
 MODFLOW STRESS PERIOD      1     CURRENT TIME STEP:    1155     ITERATIONS:       3

 -----------------------------------------------------------------------------------

   CUMULATIVE VOLUMES               L**3   RATES FOR THIS TIME STEP           L**3/T
   ------------------                      ------------------------

                                     IN                                         IN
                                     --                                         --
        PRECIPITATION =        5.5463D+09          PRECIPITATION =        6461469.31
           STREAMFLOW =                               STREAMFLOW =                  
     GW BOUNDARY FLOW =                         GW BOUNDARY FLOW =                  


                                    OUT                                        OUT
                                    ---                                        ---
   EVAPOTRANSPIRATION =        2.9376D+09     EVAPOTRANSPIRATION =         359662.53
           STREAMFLOW =        1.6168D+09             STREAMFLOW =        4966705.50
     GW BOUNDARY FLOW =                         GW BOUNDARY FLOW =                  

   INFLOWS - OUTFLOWS =        9.9179D+08     INFLOWS - OUTFLOWS =        1135101.27
             --------                                   --------

 TOTAL STORAGE CHANGE =        9.6073D+08         STORAGE CHANGE =        1120579.59
       --------------                             --------------
         LAND SURFACE =        3.3601D+08           LAND SURFACE =        4614418.77
            SOIL ZONE =        4988013.89              SOIL ZONE =         -69502.65
     UNSATURATED ZONE =       -1.4309D+07       UNSATURATED ZONE =          31824.51
       SATURATED ZONE =       -6.9040D+07         SATURATED ZONE =        -174019.05
                LAKES =        7.0308D+08                  LAKES =       -3282142.00

 OVERALL BUDGET ERROR =        3.1064D+07           BUDGET ERROR =          14521.69


  PERCENT DISCREPANCY =              0.56    PERCENT DISCREPANCY =              0.22



1
 SUMMARY VOLUMETRIC BUDGET FOR GSFLOW 
 DATE: 12 06 1983              CUMULATIVE TIME STEP:    1162
 MODFLOW STRESS PERIOD      1     CURRENT TIME STEP:    1162     ITERATIONS:      13

 -----------------------------------------------------------------------------------

   CUMULATIVE VOLUMES               L**3   RATES FOR THIS TIME STEP           L**3/T
   ------------------                      ------------------------

                                     IN                                         IN
                                     --                                         --
        PRECIPITATION =        5.6038D+09          PRECIPITATION =        3198161.89
           STREAMFLOW =                               STREAMFLOW =                  
     GW BOUNDARY FLOW =                         GW BOUNDARY FLOW =                  


                                    OUT                                        OUT
                                    ---                                        ---
   EVAPOTRANSPIRATION =        2.9414D+09     EVAPOTRANSPIRATION =         189138.13
           STREAMFLOW =        1.6522D+09             STREAMFLOW =        5064639.00
     GW BOUNDARY FLOW =                         GW BOUNDARY FLOW =                  

   INFLOWS - OUTFLOWS =        1.0102D+09     INFLOWS - OUTFLOWS =       -2055615.24
             --------                                   --------

 TOTAL STORAGE CHANGE =        9.7909D+08         STORAGE CHANGE =       -2083127.18
       --------------                             --------------
         LAND SURFACE =        3.7453D+08           LAND SURFACE =        2297029.22
            SOIL ZONE =        5532739.49              SOIL ZONE =        -127206.84
     UNSATURATED ZONE =       -1.4083D+07       UNSATURATED ZONE =         -13925.87
       SATURATED ZONE =       -7.0035D+07         SATURATED ZONE =        -118054.68
                LAKES =        6.8314D+08                  LAKES =       -4120969.00

 OVERALL BUDGET ERROR =        3.1116D+07           BUDGET ERROR =          27511.94


  PERCENT DISCREPANCY =              0.56    PERCENT DISCREPANCY =              0.52



1
 SUMMARY VOLUMETRIC BUDGET FOR GSFLOW 
 DATE: 12 13 1983              CUMULATIVE TIME STEP:    1169
 MODFLOW STRESS PERIOD      1     CURRENT TIME STEP:    1169     ITERATIONS:      13

 -----------------------------------------------------------------------------------

   CUMULATIVE VOLUMES               L**3   RATES FOR THIS TIME STEP           L**3/T
   ------------------                      ------------------------

                                     IN                                         IN
                                     --                                         --
        PRECIPITATION =        5.6998D+09          PRECIPITATION =        9594484.95
           STREAMFLOW =                               STREAMFLOW =                  
     GW BOUNDARY FLOW =                         GW BOUNDARY FLOW =                  


                                    OUT                                        OUT
                                    ---                                        ---
   EVAPOTRANSPIRATION =        2.9452D+09     EVAPOTRANSPIRATION =         229275.89
           STREAMFLOW =        1.6892D+09             STREAMFLOW =        5260512.00
     GW BOUNDARY FLOW =                         GW BOUNDARY FLOW =                  

   INFLOWS - OUTFLOWS =        1.0654D+09     INFLOWS - OUTFLOWS =        4104697.06
             --------                                   --------

 TOTAL STORAGE CHANGE =        1.0340D+09         STORAGE CHANGE =        4075374.42
       --------------                             --------------
         LAND SURFACE =        4.3881D+08           LAND SURFACE =        7023337.24
            SOIL ZONE =        6771311.08              SOIL ZONE =        -177992.09
     UNSATURATED ZONE =       -1.3556D+07       UNSATURATED ZONE =          51846.34
       SATURATED ZONE =       -7.0850D+07         SATURATED ZONE =        -180516.33
                LAKES =        6.7286D+08                  LAKES =       -2641300.75

 OVERALL BUDGET ERROR =        3.1372D+07           BUDGET ERROR =          29322.64


  PERCENT DISCREPANCY =              0.55    PERCENT DISCREPANCY =              0.31



1
 SUMMARY VOLUMETRIC BUDGET FOR GSFLOW 
 DATE: 12 20 1983              CUMULATIVE TIME STEP:    1176
 MODFLOW STRESS PERIOD      1     CURRENT TIME STEP:    1176     ITERATIONS:       4

 -----------------------------------------------------------------------------------

   CUMULATIVE VOLUMES               L**3   RATES FOR THIS TIME STEP           L**3/T
   ------------------                      ------------------------

                                     IN                                         IN
                                     --                                         --
        PRECIPITATION =        5.7158D+09          PRECIPITATION =                  
           STREAMFLOW =                               STREAMFLOW =                  
     GW BOUNDARY FLOW =                         GW BOUNDARY FLOW =                  


                                    OUT                                        OUT
                                    ---                                        ---
   EVAPOTRANSPIRATION =        2.9531D+09     EVAPOTRANSPIRATION =         342456.05
           STREAMFLOW =        1.7277D+09             STREAMFLOW =        5578472.50
     GW BOUNDARY FLOW =                         GW BOUNDARY FLOW =                  

   INFLOWS - OUTFLOWS =        1.0350D+09     INFLOWS - OUTFLOWS =       -5920928.55
             --------                                   --------

 TOTAL STORAGE CHANGE =        1.0035D+09         STORAGE CHANGE =       -5948027.70
       --------------                             --------------
         LAND SURFACE =        4.4222D+08           LAND SURFACE =        -213865.81
            SOIL ZONE =        7498085.77              SOIL ZONE =        -176066.40
     UNSATURATED ZONE =       -1.3184D+07       UNSATURATED ZONE =          47688.43
       SATURATED ZONE =       -7.1854D+07         SATURATED ZONE =        -191933.92
                LAKES =        6.3879D+08                  LAKES =       -5413850.00

 OVERALL BUDGET ERROR =        3.1492D+07           BUDGET ERROR =          27099.16


  PERCENT DISCREPANCY =              0.55    PERCENT DISCREPANCY =              0.46



1
 SUMMARY VOLUMETRIC BUDGET FOR GSFLOW 
 DATE: 12 27 1983              CUMULATIVE TIME STEP:    1183
 MODFLOW STRESS PERIOD      1     CURRENT TIME STEP:    1183     ITERATIONS:      29

 -----------------------------------------------------------------------------------

   CUMULATIVE VOLUMES               L**3   RATES FOR THIS TIME STEP           L**3/T
   ------------------                      ------------------------

                                     IN                                         IN
                                     --                                         --
        PRECIPITATION =        5.8917D+09          PRECIPITATION =        9594484.95
           STREAMFLOW =                               STREAMFLOW =                  
     GW BOUNDARY FLOW =                         GW BOUNDARY FLOW =                  


                                    OUT                                        OUT
                                    ---                                        ---
   EVAPOTRANSPIRATION =        2.9554D+09     EVAPOTRANSPIRATION =         405519.75
           STREAMFLOW =        1.7667D+09             STREAMFLOW =        5677393.00
     GW BOUNDARY FLOW =                         GW BOUNDARY FLOW =                  

   INFLOWS - OUTFLOWS =        1.1696D+09     INFLOWS - OUTFLOWS =        3511572.20
             --------                                   --------

 TOTAL STORAGE CHANGE =        1.1378D+09         STORAGE CHANGE =        3460081.18
       --------------                             --------------
         LAND SURFACE =        5.6722D+08           LAND SURFACE =        5883791.64
            SOIL ZONE =        8222599.97              SOIL ZONE =         228602.23
     UNSATURATED ZONE =       -1.2890D+07       UNSATURATED ZONE =         108838.21
       SATURATED ZONE =       -7.2515D+07         SATURATED ZONE =        -100033.65
                LAKES =        6.4774D+08                  LAKES =       -2661117.25

 OVERALL BUDGET ERROR =        3.1800D+07           BUDGET ERROR =          51491.01


  PERCENT DISCREPANCY =              0.54    PERCENT DISCREPANCY =              0.54



1
 SUMMARY VOLUMETRIC BUDGET FOR GSFLOW 
 DATE: 01 03 1984              CUMULATIVE TIME STEP:    1190
 MODFLOW STRESS PERIOD      1     CURRENT TIME STEP:    1190     ITERATIONS:       4

 -----------------------------------------------------------------------------------

   CUMULATIVE VOLUMES               L**3   RATES FOR THIS TIME STEP           L**3/T
   ------------------                      ------------------------

                                     IN                                         IN
                                     --                                         --
        PRECIPITATION =        5.9235D+09          PRECIPITATION =                  
           STREAMFLOW =                               STREAMFLOW =                  
     GW BOUNDARY FLOW =                         GW BOUNDARY FLOW =                  


                                    OUT                                        OUT
                                    ---                                        ---
   EVAPOTRANSPIRATION =        2.9619D+09     EVAPOTRANSPIRATION =        1486255.69
           STREAMFLOW =        1.8063D+09             STREAMFLOW =        5603065.50
     GW BOUNDARY FLOW =                         GW BOUNDARY FLOW =                  

   INFLOWS - OUTFLOWS =        1.1553D+09     INFLOWS - OUTFLOWS =       -7089321.19
             --------                                   --------

 TOTAL STORAGE CHANGE =        1.1232D+09         STORAGE CHANGE =       -7122773.71
       --------------                             --------------
         LAND SURFACE =        5.8049D+08           LAND SURFACE =        -951131.11
            SOIL ZONE =        8931774.14              SOIL ZONE =        -187976.87
     UNSATURATED ZONE =       -1.2445D+07       UNSATURATED ZONE =          10762.12
       SATURATED ZONE =       -7.3378D+07         SATURATED ZONE =        -197932.84
                LAKES =        6.1959D+08                  LAKES =       -5796495.00

 OVERALL BUDGET ERROR =        3.2072D+07           BUDGET ERROR =          33452.51


  PERCENT DISCREPANCY =              0.54    PERCENT DISCREPANCY =              0.47



1
 SUMMARY VOLUMETRIC BUDGET FOR GSFLOW 
 DATE: 01 10 1984              CUMULATIVE TIME STEP:    1197
 MODFLOW STRESS PERIOD      1     CURRENT TIME STEP:    1197     ITERATIONS:       3

 -----------------------------------------------------------------------------------

   CUMULATIVE VOLUMES               L**3   RATES FOR THIS TIME STEP           L**3/T
   ------------------                      ------------------------

                                     IN                                         IN
                                     --                                         --
        PRECIPITATION =        5.9235D+09          PRECIPITATION =                  
           STREAMFLOW =                               STREAMFLOW =                  
     GW BOUNDARY FLOW =                         GW BOUNDARY FLOW =                  


                                    OUT                                        OUT
                                    ---                                        ---
   EVAPOTRANSPIRATION =        2.9747D+09     EVAPOTRANSPIRATION =        1775896.61
           STREAMFLOW =        1.8438D+09             STREAMFLOW =        5235933.50
     GW BOUNDARY FLOW =                         GW BOUNDARY FLOW =                  

   INFLOWS - OUTFLOWS =        1.1050D+09     INFLOWS - OUTFLOWS =       -7011830.11
             --------                                   --------

 TOTAL STORAGE CHANGE =        1.0727D+09         STORAGE CHANGE =       -7063263.40
       --------------                             --------------
         LAND SURFACE =        5.6881D+08           LAND SURFACE =       -1899310.74
            SOIL ZONE =        9901209.52              SOIL ZONE =         272276.12
     UNSATURATED ZONE =       -1.2413D+07       UNSATURATED ZONE =          28263.96
       SATURATED ZONE =       -7.4332D+07         SATURATED ZONE =        -108141.73
                LAKES =        5.8078D+08                  LAKES =       -5356351.00

 OVERALL BUDGET ERROR =        3.2292D+07           BUDGET ERROR =          51433.29


  PERCENT DISCREPANCY =              0.55    PERCENT DISCREPANCY =              0.73



1
 SUMMARY VOLUMETRIC BUDGET FOR GSFLOW 
 DATE: 01 17 1984              CUMULATIVE TIME STEP:    1204
 MODFLOW STRESS PERIOD      1     CURRENT TIME STEP:    1204     ITERATIONS:       3

 -----------------------------------------------------------------------------------

   CUMULATIVE VOLUMES               L**3   RATES FOR THIS TIME STEP           L**3/T
   ------------------                      ------------------------

                                     IN                                         IN
                                     --                                         --
        PRECIPITATION =        5.9475D+09          PRECIPITATION =                  
           STREAMFLOW =                               STREAMFLOW =                  
     GW BOUNDARY FLOW =                         GW BOUNDARY FLOW =                  


                                    OUT                                        OUT
                                    ---                                        ---
   EVAPOTRANSPIRATION =        2.9785D+09     EVAPOTRANSPIRATION =         519877.31
           STREAMFLOW =        1.8795D+09             STREAMFLOW =        5015584.50
     GW BOUNDARY FLOW =                         GW BOUNDARY FLOW =                  

   INFLOWS - OUTFLOWS =        1.0895D+09     INFLOWS - OUTFLOWS =       -5535461.81
             --------                                   --------

 TOTAL STORAGE CHANGE =        1.0572D+09         STORAGE CHANGE =       -5544814.84
       --------------                             --------------
         LAND SURFACE =        5.8433D+08           LAND SURFACE =        -355918.57
            SOIL ZONE =        8952098.22              SOIL ZONE =         -94887.83
     UNSATURATED ZONE =       -1.2332D+07       UNSATURATED ZONE =             93.03
       SATURATED ZONE =       -7.5403D+07         SATURATED ZONE =        -161772.47
                LAKES =        5.5168D+08                  LAKES =       -4932329.00

 OVERALL BUDGET ERROR =        3.2274D+07           BUDGET ERROR =           9353.03


  PERCENT DISCREPANCY =              0.54    PERCENT DISCREPANCY =              0.17



1
 SUMMARY VOLUMETRIC BUDGET FOR GSFLOW 
 DATE: 01 24 1984              CUMULATIVE TIME STEP:    1211
 MODFLOW STRESS PERIOD      1     CURRENT TIME STEP:    1211     ITERATIONS:       4

 -----------------------------------------------------------------------------------

   CUMULATIVE VOLUMES               L**3   RATES FOR THIS TIME STEP           L**3/T
   ------------------                      ------------------------

                                     IN                                         IN
                                     --                                         --
        PRECIPITATION =        5.9535D+09          PRECIPITATION =                  
           STREAMFLOW =                               STREAMFLOW =                  
     GW BOUNDARY FLOW =                         GW BOUNDARY FLOW =                  


                                    OUT                                        OUT
                                    ---                                        ---
   EVAPOTRANSPIRATION =        2.9840D+09     EVAPOTRANSPIRATION =        1074253.46
           STREAMFLOW =        1.9143D+09             STREAMFLOW =        4917690.00
     GW BOUNDARY FLOW =                         GW BOUNDARY FLOW =                  

   INFLOWS - OUTFLOWS =        1.0552D+09     INFLOWS - OUTFLOWS =       -5991943.46
             --------                                   --------

 TOTAL STORAGE CHANGE =        1.0228D+09         STORAGE CHANGE =       -6002403.04
       --------------                             --------------
         LAND SURFACE =        5.8574D+08           LAND SURFACE =        -567657.68
            SOIL ZONE =        8451267.57              SOIL ZONE =         -62388.11
     UNSATURATED ZONE =       -1.2588D+07       UNSATURATED ZONE =         -45021.18
       SATURATED ZONE =       -7.6425D+07         SATURATED ZONE =        -160686.56
                LAKES =        5.1767D+08                  LAKES =       -5166649.50

 OVERALL BUDGET ERROR =        3.2337D+07           BUDGET ERROR =          10459.58


  PERCENT DISCREPANCY =              0.54    PERCENT DISCREPANCY =              0.17



