1
 SUMMARY VOLUMETRIC BUDGET FOR GSFLOW 
 DATE: 10 07 1980              CUMULATIVE TIME STEP:       7
 MODFLOW STRESS PERIOD      1     CURRENT TIME STEP:       7     ITERATIONS:      14

 -----------------------------------------------------------------------------------

   CUMULATIVE VOLUMES               L**3   RATES FOR THIS TIME STEP           L**3/T
   ------------------                      ------------------------

                                     IN                                         IN
                                     --                                         --
        PRECIPITATION =                            PRECIPITATION =                  
           STREAMFLOW =                               STREAMFLOW =                  
     GW BOUNDARY FLOW =                         GW BOUNDARY FLOW =                  


                                    OUT                                        OUT
                                    ---                                        ---
   EVAPOTRANSPIRATION =        1.5511D+07     EVAPOTRANSPIRATION =        1478881.36
           STREAMFLOW =        1672058.77             STREAMFLOW =         183556.67
     GW BOUNDARY FLOW =                         GW BOUNDARY FLOW =                  

   INFLOWS - OUTFLOWS =       -1.7183D+07     INFLOWS - OUTFLOWS =       -1662438.03
             --------                                   --------

 TOTAL STORAGE CHANGE =       -1.7157D+07         STORAGE CHANGE =       -1664381.50
       --------------                             --------------
         LAND SURFACE =                             LAND SURFACE =                  
            SOIL ZONE =       -5762960.39              SOIL ZONE =        -270465.11
     UNSATURATED ZONE =       -1007862.74       UNSATURATED ZONE =         -54922.61
       SATURATED ZONE =       -1300626.94         SATURATED ZONE =        -269871.91
                LAKES =       -9085744.75                  LAKES =       -1069121.88

 OVERALL BUDGET ERROR =         -25985.08           BUDGET ERROR =           1943.46


  PERCENT DISCREPANCY =             -0.15    PERCENT DISCREPANCY =              0.12



1
 SUMMARY VOLUMETRIC BUDGET FOR GSFLOW 
 DATE: 10 14 1980              CUMULATIVE TIME STEP:      14
 MODFLOW STRESS PERIOD      1     CURRENT TIME STEP:      14     ITERATIONS:       3

 -----------------------------------------------------------------------------------

   CUMULATIVE VOLUMES               L**3   RATES FOR THIS TIME STEP           L**3/T
   ------------------                      ------------------------

                                     IN                                         IN
                                     --                                         --
        PRECIPITATION =        1.3442D+07          PRECIPITATION =        6721104.51
           STREAMFLOW =                               STREAMFLOW =                  
     GW BOUNDARY FLOW =                         GW BOUNDARY FLOW =                  


                                    OUT                                        OUT
                                    ---                                        ---
   EVAPOTRANSPIRATION =        2.3219D+07     EVAPOTRANSPIRATION =         507117.51
           STREAMFLOW =        2279257.54             STREAMFLOW =          34825.50
     GW BOUNDARY FLOW =                         GW BOUNDARY FLOW =                  

   INFLOWS - OUTFLOWS =       -1.2056D+07     INFLOWS - OUTFLOWS =        6179161.50
             --------                                   --------

 TOTAL STORAGE CHANGE =       -1.2123D+07         STORAGE CHANGE =        6136212.93
       --------------                             --------------
         LAND SURFACE =        2292332.54           LAND SURFACE =        1396244.76
            SOIL ZONE =         153423.19              SOIL ZONE =        3131504.41
     UNSATURATED ZONE =       -1444973.64       UNSATURATED ZONE =         -57230.39
       SATURATED ZONE =       -2729795.11         SATURATED ZONE =        -121178.61
                LAKES =       -1.0394D+07                  LAKES =        1786872.75

 OVERALL BUDGET ERROR =          66946.00           BUDGET ERROR =          42948.57


  PERCENT DISCREPANCY =              0.26    PERCENT DISCREPANCY =              0.64



1
 SUMMARY VOLUMETRIC BUDGET FOR GSFLOW 
 DATE: 10 21 1980              CUMULATIVE TIME STEP:      21
 MODFLOW STRESS PERIOD      1     CURRENT TIME STEP:      21     ITERATIONS:       3

 -----------------------------------------------------------------------------------

   CUMULATIVE VOLUMES               L**3   RATES FOR THIS TIME STEP           L**3/T
   ------------------                      ------------------------

                                     IN                                         IN
                                     --                                         --
        PRECIPITATION =        1.6803D+07          PRECIPITATION =                  
           STREAMFLOW =                               STREAMFLOW =                  
     GW BOUNDARY FLOW =                         GW BOUNDARY FLOW =                  


                                    OUT                                        OUT
                                    ---                                        ---
   EVAPOTRANSPIRATION =        3.0233D+07     EVAPOTRANSPIRATION =        1467066.03
           STREAMFLOW =        3039696.79             STREAMFLOW =         364392.81
     GW BOUNDARY FLOW =                         GW BOUNDARY FLOW =                  

   INFLOWS - OUTFLOWS =       -1.6470D+07     INFLOWS - OUTFLOWS =       -1831458.84
             --------                                   --------

 TOTAL STORAGE CHANGE =       -1.6550D+07         STORAGE CHANGE =       -1828178.12
       --------------                             --------------
         LAND SURFACE =         450933.11           LAND SURFACE =        -157820.81
            SOIL ZONE =        -328511.81              SOIL ZONE =        -679592.61
     UNSATURATED ZONE =       -1881069.97       UNSATURATED ZONE =         -58658.82
       SATURATED ZONE =       -3772063.80         SATURATED ZONE =        -158367.25
                LAKES =       -1.1019D+07                  LAKES =        -773738.62

 OVERALL BUDGET ERROR =          79955.58           BUDGET ERROR =          -3280.72


  PERCENT DISCREPANCY =              0.24    PERCENT DISCREPANCY =             -0.18



1
 SUMMARY VOLUMETRIC BUDGET FOR GSFLOW 
 DATE: 10 28 1980              CUMULATIVE TIME STEP:      28
 MODFLOW STRESS PERIOD      1     CURRENT TIME STEP:      28     ITERATIONS:       4

 -----------------------------------------------------------------------------------

   CUMULATIVE VOLUMES               L**3   RATES FOR THIS TIME STEP           L**3/T
   ------------------                      ------------------------

                                     IN                                         IN
                                     --                                         --
        PRECIPITATION =        4.0327D+07          PRECIPITATION =                  
           STREAMFLOW =                               STREAMFLOW =                  
     GW BOUNDARY FLOW =                         GW BOUNDARY FLOW =                  


                                    OUT                                        OUT
                                    ---                                        ---
   EVAPOTRANSPIRATION =        3.7280D+07     EVAPOTRANSPIRATION =         461412.22
           STREAMFLOW =        5483164.94             STREAMFLOW =         342843.84
     GW BOUNDARY FLOW =                         GW BOUNDARY FLOW =                  

   INFLOWS - OUTFLOWS =       -2436231.72     INFLOWS - OUTFLOWS =        -804256.06
             --------                                   --------

 TOTAL STORAGE CHANGE =       -3044895.31         STORAGE CHANGE =        -769323.73
       --------------                             --------------
         LAND SURFACE =        4658064.73           LAND SURFACE =        -166816.91
            SOIL ZONE =        7112344.91              SOIL ZONE =        -271772.25
     UNSATURATED ZONE =       -2174529.23       UNSATURATED ZONE =         -31871.42
       SATURATED ZONE =       -4523351.12         SATURATED ZONE =        -126025.81
                LAKES =       -8117424.59                  LAKES =        -172837.34

 OVERALL BUDGET ERROR =         608663.58           BUDGET ERROR =         -34932.33

  ***WARNING, FLUX RATES OFF > 3%

  PERCENT DISCREPANCY =              1.41    PERCENT DISCREPANCY =             -4.44



1
 SUMMARY VOLUMETRIC BUDGET FOR GSFLOW 
 DATE: 11 04 1980              CUMULATIVE TIME STEP:      35
 MODFLOW STRESS PERIOD      1     CURRENT TIME STEP:      35     ITERATIONS:       7

 -----------------------------------------------------------------------------------

   CUMULATIVE VOLUMES               L**3   RATES FOR THIS TIME STEP           L**3/T
   ------------------                      ------------------------

                                     IN                                         IN
                                     --                                         --
        PRECIPITATION =        5.0408D+07          PRECIPITATION =                  
           STREAMFLOW =                               STREAMFLOW =                  
     GW BOUNDARY FLOW =                         GW BOUNDARY FLOW =                  


                                    OUT                                        OUT
                                    ---                                        ---
   EVAPOTRANSPIRATION =        5.2114D+07     EVAPOTRANSPIRATION =        2794238.89
           STREAMFLOW =        7932063.29             STREAMFLOW =         350030.38
     GW BOUNDARY FLOW =                         GW BOUNDARY FLOW =                  

   INFLOWS - OUTFLOWS =       -9638044.93     INFLOWS - OUTFLOWS =       -3144269.27
             --------                                   --------

 TOTAL STORAGE CHANGE =       -1.0599D+07         STORAGE CHANGE =       -3149762.83
       --------------                             --------------
         LAND SURFACE =         206598.96           LAND SURFACE =         -41867.41
            SOIL ZONE =        3878930.11              SOIL ZONE =       -1780658.56
     UNSATURATED ZONE =       -2137064.42       UNSATURATED ZONE =         -46057.97
       SATURATED ZONE =       -5062767.89         SATURATED ZONE =        -247453.14
                LAKES =       -7484228.40                  LAKES =       -1033725.75

 OVERALL BUDGET ERROR =         960486.70           BUDGET ERROR =           5493.56


  PERCENT DISCREPANCY =              1.59    PERCENT DISCREPANCY =              0.17



1
 SUMMARY VOLUMETRIC BUDGET FOR GSFLOW 
 DATE: 11 11 1980              CUMULATIVE TIME STEP:      42
 MODFLOW STRESS PERIOD      1     CURRENT TIME STEP:      42     ITERATIONS:       5

 -----------------------------------------------------------------------------------

   CUMULATIVE VOLUMES               L**3   RATES FOR THIS TIME STEP           L**3/T
   ------------------                      ------------------------

                                     IN                                         IN
                                     --                                         --
        PRECIPITATION =        7.9485D+07          PRECIPITATION =        3230734.65
           STREAMFLOW =                               STREAMFLOW =                  
     GW BOUNDARY FLOW =                         GW BOUNDARY FLOW =                  


                                    OUT                                        OUT
                                    ---                                        ---
   EVAPOTRANSPIRATION =        6.9953D+07     EVAPOTRANSPIRATION =        1696113.67
           STREAMFLOW =        9809691.39             STREAMFLOW =         250092.14
     GW BOUNDARY FLOW =                         GW BOUNDARY FLOW =                  

   INFLOWS - OUTFLOWS =        -277561.95     INFLOWS - OUTFLOWS =        1284528.84
             --------                                   --------

 TOTAL STORAGE CHANGE =       -1502715.26         STORAGE CHANGE =        1148813.63
       --------------                             --------------
         LAND SURFACE =        3266569.49           LAND SURFACE =        -110998.46
            SOIL ZONE =        8678321.16              SOIL ZONE =         699212.20
     UNSATURATED ZONE =       -2168565.26       UNSATURATED ZONE =          39575.42
       SATURATED ZONE =       -5933053.94         SATURATED ZONE =         -35744.53
                LAKES =       -5345986.71                  LAKES =         556769.00

 OVERALL BUDGET ERROR =        1225153.31           BUDGET ERROR =         135715.21

  ***WARNING, FLUX RATES OFF > 3%

  PERCENT DISCREPANCY =              1.52    PERCENT DISCREPANCY =              4.29



1
 SUMMARY VOLUMETRIC BUDGET FOR GSFLOW 
 DATE: 11 18 1980              CUMULATIVE TIME STEP:      49
 MODFLOW STRESS PERIOD      1     CURRENT TIME STEP:      49     ITERATIONS:       3

 -----------------------------------------------------------------------------------

   CUMULATIVE VOLUMES               L**3   RATES FOR THIS TIME STEP           L**3/T
   ------------------                      ------------------------

                                     IN                                         IN
                                     --                                         --
        PRECIPITATION =        8.5946D+07          PRECIPITATION =                  
           STREAMFLOW =                               STREAMFLOW =                  
     GW BOUNDARY FLOW =                         GW BOUNDARY FLOW =                  


                                    OUT                                        OUT
                                    ---                                        ---
   EVAPOTRANSPIRATION =        7.6245D+07     EVAPOTRANSPIRATION =        1510955.21
           STREAMFLOW =        1.1638D+07             STREAMFLOW =         312770.31
     GW BOUNDARY FLOW =                         GW BOUNDARY FLOW =                  

   INFLOWS - OUTFLOWS =       -1937198.86     INFLOWS - OUTFLOWS =       -1823725.52
             --------                                   --------

 TOTAL STORAGE CHANGE =       -2898673.16         STORAGE CHANGE =       -1769375.55
       --------------                             --------------
         LAND SURFACE =        3785521.17           LAND SURFACE =        -428824.73
            SOIL ZONE =        8057475.67              SOIL ZONE =        -668178.84
     UNSATURATED ZONE =       -2095848.85       UNSATURATED ZONE =          19793.61
       SATURATED ZONE =       -7168063.70         SATURATED ZONE =        -170627.75
                LAKES =       -5477757.45                  LAKES =        -521537.84

 OVERALL BUDGET ERROR =         961474.30           BUDGET ERROR =         -54349.97

  ***WARNING, FLUX RATES OFF > 3%

  PERCENT DISCREPANCY =              1.09    PERCENT DISCREPANCY =             -3.03



1
 SUMMARY VOLUMETRIC BUDGET FOR GSFLOW 
 DATE: 11 25 1980              CUMULATIVE TIME STEP:      56
 MODFLOW STRESS PERIOD      1     CURRENT TIME STEP:      56     ITERATIONS:       3

 -----------------------------------------------------------------------------------

   CUMULATIVE VOLUMES               L**3   RATES FOR THIS TIME STEP           L**3/T
   ------------------                      ------------------------

                                     IN                                         IN
                                     --                                         --
        PRECIPITATION =        8.9177D+07          PRECIPITATION =                  
           STREAMFLOW =                               STREAMFLOW =                  
     GW BOUNDARY FLOW =                         GW BOUNDARY FLOW =                  


                                    OUT                                        OUT
                                    ---                                        ---
   EVAPOTRANSPIRATION =        8.3095D+07     EVAPOTRANSPIRATION =         272926.42
           STREAMFLOW =        1.4055D+07             STREAMFLOW =         437097.81
     GW BOUNDARY FLOW =                         GW BOUNDARY FLOW =                  

   INFLOWS - OUTFLOWS =       -7972266.73     INFLOWS - OUTFLOWS =        -710024.23
             --------                                   --------

 TOTAL STORAGE CHANGE =       -9017014.76         STORAGE CHANGE =        -730969.85
       --------------                             --------------
         LAND SURFACE =        3623166.05           LAND SURFACE =         -24347.90
            SOIL ZONE =        6057962.30              SOIL ZONE =        -183622.53
     UNSATURATED ZONE =       -2108552.62       UNSATURATED ZONE =         -17509.20
       SATURATED ZONE =       -8405950.91         SATURATED ZONE =        -182879.81
                LAKES =       -8183639.57                  LAKES =        -322610.41

 OVERALL BUDGET ERROR =        1044748.03           BUDGET ERROR =          20945.62


  PERCENT DISCREPANCY =              1.07    PERCENT DISCREPANCY =              2.91



1
 SUMMARY VOLUMETRIC BUDGET FOR GSFLOW 
 DATE: 12 02 1980              CUMULATIVE TIME STEP:      63
 MODFLOW STRESS PERIOD      1     CURRENT TIME STEP:      63     ITERATIONS:       4

 -----------------------------------------------------------------------------------

   CUMULATIVE VOLUMES               L**3   RATES FOR THIS TIME STEP           L**3/T
   ------------------                      ------------------------

                                     IN                                         IN
                                     --                                         --
        PRECIPITATION =        1.0846D+08          PRECIPITATION =        3198161.89
           STREAMFLOW =                               STREAMFLOW =                  
     GW BOUNDARY FLOW =                         GW BOUNDARY FLOW =                  


                                    OUT                                        OUT
                                    ---                                        ---
   EVAPOTRANSPIRATION =        9.0643D+07     EVAPOTRANSPIRATION =        1276583.94
           STREAMFLOW =        1.7318D+07             STREAMFLOW =         437214.94
     GW BOUNDARY FLOW =                         GW BOUNDARY FLOW =                  

   INFLOWS - OUTFLOWS =         502941.81     INFLOWS - OUTFLOWS =        1484363.02
             --------                                   --------

 TOTAL STORAGE CHANGE =       -1030329.70         STORAGE CHANGE =        1308290.03
       --------------                             --------------
         LAND SURFACE =        6315725.60           LAND SURFACE =       -1022199.63
            SOIL ZONE =        9942920.20              SOIL ZONE =        1753866.07
     UNSATURATED ZONE =       -1959822.92       UNSATURATED ZONE =          56595.49
       SATURATED ZONE =       -9139162.17         SATURATED ZONE =         -41997.78
                LAKES =       -6189990.42                  LAKES =         562025.88

 OVERALL BUDGET ERROR =        1533271.51           BUDGET ERROR =         176072.99

  ***WARNING, FLUX RATES OFF > 3%

  PERCENT DISCREPANCY =              1.41    PERCENT DISCREPANCY =              5.66



1
 SUMMARY VOLUMETRIC BUDGET FOR GSFLOW 
 DATE: 12 09 1980              CUMULATIVE TIME STEP:      70
 MODFLOW STRESS PERIOD      1     CURRENT TIME STEP:      70     ITERATIONS:       3

 -----------------------------------------------------------------------------------

   CUMULATIVE VOLUMES               L**3   RATES FOR THIS TIME STEP           L**3/T
   ------------------                      ------------------------

                                     IN                                         IN
                                     --                                         --
        PRECIPITATION =        1.7882D+08          PRECIPITATION =                  
           STREAMFLOW =                               STREAMFLOW =                  
     GW BOUNDARY FLOW =                         GW BOUNDARY FLOW =                  


                                    OUT                                        OUT
                                    ---                                        ---
   EVAPOTRANSPIRATION =        9.2974D+07     EVAPOTRANSPIRATION =         386685.87
           STREAMFLOW =        2.0282D+07             STREAMFLOW =         420980.56
     GW BOUNDARY FLOW =                         GW BOUNDARY FLOW =                  

   INFLOWS - OUTFLOWS =        6.5567D+07     INFLOWS - OUTFLOWS =        -807666.43
             --------                                   --------

 TOTAL STORAGE CHANGE =        6.3712D+07         STORAGE CHANGE =        -824848.33
       --------------                             --------------
         LAND SURFACE =        5.0168D+07           LAND SURFACE =        -246649.42
            SOIL ZONE =        1.3107D+07              SOIL ZONE =        -140630.35
     UNSATURATED ZONE =       -1523919.06       UNSATURATED ZONE =          40026.37
       SATURATED ZONE =       -1.0110D+07         SATURATED ZONE =        -207505.19
                LAKES =        1.2071D+07                  LAKES =        -270089.75

 OVERALL BUDGET ERROR =        1855143.80           BUDGET ERROR =          17181.90


  PERCENT DISCREPANCY =              1.04    PERCENT DISCREPANCY =              2.10



1
 SUMMARY VOLUMETRIC BUDGET FOR GSFLOW 
 DATE: 12 16 1980              CUMULATIVE TIME STEP:      77
 MODFLOW STRESS PERIOD      1     CURRENT TIME STEP:      77     ITERATIONS:       3

 -----------------------------------------------------------------------------------

   CUMULATIVE VOLUMES               L**3   RATES FOR THIS TIME STEP           L**3/T
   ------------------                      ------------------------

                                     IN                                         IN
                                     --                                         --
        PRECIPITATION =        1.7882D+08          PRECIPITATION =                  
           STREAMFLOW =                               STREAMFLOW =                  
     GW BOUNDARY FLOW =                         GW BOUNDARY FLOW =                  


                                    OUT                                        OUT
                                    ---                                        ---
   EVAPOTRANSPIRATION =        9.9447D+07     EVAPOTRANSPIRATION =        1457720.42
           STREAMFLOW =        2.3263D+07             STREAMFLOW =         430698.91
     GW BOUNDARY FLOW =                         GW BOUNDARY FLOW =                  

   INFLOWS - OUTFLOWS =        5.6114D+07     INFLOWS - OUTFLOWS =       -1888419.33
             --------                                   --------

 TOTAL STORAGE CHANGE =        5.4069D+07         STORAGE CHANGE =       -1926303.12
       --------------                             --------------
         LAND SURFACE =        4.5744D+07           LAND SURFACE =       -1259208.96
            SOIL ZONE =        1.2796D+07              SOIL ZONE =         237906.07
     UNSATURATED ZONE =       -1377837.03       UNSATURATED ZONE =          20128.61
       SATURATED ZONE =       -1.1441D+07         SATURATED ZONE =        -168638.22
                LAKES =        8347863.56                  LAKES =        -756490.62

 OVERALL BUDGET ERROR =        2044534.81           BUDGET ERROR =          37883.80


  PERCENT DISCREPANCY =              1.15    PERCENT DISCREPANCY =              1.99



1
 SUMMARY VOLUMETRIC BUDGET FOR GSFLOW 
 DATE: 12 23 1980              CUMULATIVE TIME STEP:      84
 MODFLOW STRESS PERIOD      1     CURRENT TIME STEP:      84     ITERATIONS:       3

 -----------------------------------------------------------------------------------

   CUMULATIVE VOLUMES               L**3   RATES FOR THIS TIME STEP           L**3/T
   ------------------                      ------------------------

                                     IN                                         IN
                                     --                                         --
        PRECIPITATION =        1.8522D+08          PRECIPITATION =        3198161.89
           STREAMFLOW =                               STREAMFLOW =                  
     GW BOUNDARY FLOW =                         GW BOUNDARY FLOW =                  


                                    OUT                                        OUT
                                    ---                                        ---
   EVAPOTRANSPIRATION =        1.0782D+08     EVAPOTRANSPIRATION =        1096960.74
           STREAMFLOW =        2.6316D+07             STREAMFLOW =         443565.56
     GW BOUNDARY FLOW =                         GW BOUNDARY FLOW =                  

   INFLOWS - OUTFLOWS =        5.1083D+07     INFLOWS - OUTFLOWS =        1657635.59
             --------                                   --------

 TOTAL STORAGE CHANGE =        4.8721D+07         STORAGE CHANGE =        1507717.70
       --------------                             --------------
         LAND SURFACE =        4.0221D+07           LAND SURFACE =        -367739.35
            SOIL ZONE =        1.5774D+07              SOIL ZONE =        1371225.57
     UNSATURATED ZONE =       -1092824.11       UNSATURATED ZONE =          94422.52
       SATURATED ZONE =       -1.2355D+07         SATURATED ZONE =         -80737.01
                LAKES =        6174130.84                  LAKES =         490545.97

 OVERALL BUDGET ERROR =        2362210.98           BUDGET ERROR =         149917.89

  ***WARNING, FLUX RATES OFF > 3%

  PERCENT DISCREPANCY =              1.28    PERCENT DISCREPANCY =              4.80



1
 SUMMARY VOLUMETRIC BUDGET FOR GSFLOW 
 DATE: 12 30 1980              CUMULATIVE TIME STEP:      91
 MODFLOW STRESS PERIOD      1     CURRENT TIME STEP:      91     ITERATIONS:       4

 -----------------------------------------------------------------------------------

   CUMULATIVE VOLUMES               L**3   RATES FOR THIS TIME STEP           L**3/T
   ------------------                      ------------------------

                                     IN                                         IN
                                     --                                         --
        PRECIPITATION =        1.8522D+08          PRECIPITATION =                  
           STREAMFLOW =                               STREAMFLOW =                  
     GW BOUNDARY FLOW =                         GW BOUNDARY FLOW =                  


                                    OUT                                        OUT
                                    ---                                        ---
   EVAPOTRANSPIRATION =        1.1805D+08     EVAPOTRANSPIRATION =        1240471.40
           STREAMFLOW =        2.9399D+07             STREAMFLOW =         445279.78
     GW BOUNDARY FLOW =                         GW BOUNDARY FLOW =                  

   INFLOWS - OUTFLOWS =        3.7767D+07     INFLOWS - OUTFLOWS =       -1685751.18
             --------                                   --------

 TOTAL STORAGE CHANGE =        3.5245D+07         STORAGE CHANGE =       -1698450.69
       --------------                             --------------
         LAND SURFACE =        3.3989D+07           LAND SURFACE =        -561684.68
            SOIL ZONE =        1.3820D+07              SOIL ZONE =        -403942.46
     UNSATURATED ZONE =        -774728.99       UNSATURATED ZONE =          33879.43
       SATURATED ZONE =       -1.3409D+07         SATURATED ZONE =        -163195.86
                LAKES =        1621037.75                  LAKES =        -603507.12

 OVERALL BUDGET ERROR =        2521720.95           BUDGET ERROR =          12699.51


  PERCENT DISCREPANCY =              1.37    PERCENT DISCREPANCY =              0.75



1
 SUMMARY VOLUMETRIC BUDGET FOR GSFLOW 
 DATE: 01 06 1981              CUMULATIVE TIME STEP:      98
 MODFLOW STRESS PERIOD      1     CURRENT TIME STEP:      98     ITERATIONS:      14

 -----------------------------------------------------------------------------------

   CUMULATIVE VOLUMES               L**3   RATES FOR THIS TIME STEP           L**3/T
   ------------------                      ------------------------

                                     IN                                         IN
                                     --                                         --
        PRECIPITATION =        2.0923D+08          PRECIPITATION =                  
           STREAMFLOW =                               STREAMFLOW =                  
     GW BOUNDARY FLOW =                         GW BOUNDARY FLOW =                  


                                    OUT                                        OUT
                                    ---                                        ---
   EVAPOTRANSPIRATION =        1.2563D+08     EVAPOTRANSPIRATION =        1141256.29
           STREAMFLOW =        3.2519D+07             STREAMFLOW =         445540.84
     GW BOUNDARY FLOW =                         GW BOUNDARY FLOW =                  

   INFLOWS - OUTFLOWS =        5.1081D+07     INFLOWS - OUTFLOWS =       -1586797.13
             --------                                   --------

 TOTAL STORAGE CHANGE =        4.8460D+07         STORAGE CHANGE =       -1620551.94
       --------------                             --------------
         LAND SURFACE =        3.9010D+07           LAND SURFACE =        -361344.25
            SOIL ZONE =        1.7030D+07              SOIL ZONE =        -582752.64
     UNSATURATED ZONE =        -189446.52       UNSATURATED ZONE =          81132.48
       SATURATED ZONE =       -1.3972D+07         SATURATED ZONE =        -219971.47
                LAKES =        6580634.28                  LAKES =        -537616.06

 OVERALL BUDGET ERROR =        2620942.94           BUDGET ERROR =          33754.81


  PERCENT DISCREPANCY =              1.26    PERCENT DISCREPANCY =              2.10



1
 SUMMARY VOLUMETRIC BUDGET FOR GSFLOW 
 DATE: 01 13 1981              CUMULATIVE TIME STEP:     105
 MODFLOW STRESS PERIOD      1     CURRENT TIME STEP:     105     ITERATIONS:       3

 -----------------------------------------------------------------------------------

   CUMULATIVE VOLUMES               L**3   RATES FOR THIS TIME STEP           L**3/T
   ------------------                      ------------------------

                                     IN                                         IN
                                     --                                         --
        PRECIPITATION =        2.1223D+08          PRECIPITATION =                  
           STREAMFLOW =                               STREAMFLOW =                  
     GW BOUNDARY FLOW =                         GW BOUNDARY FLOW =                  


                                    OUT                                        OUT
                                    ---                                        ---
   EVAPOTRANSPIRATION =        1.3396D+08     EVAPOTRANSPIRATION =        1403824.46
           STREAMFLOW =        3.5650D+07             STREAMFLOW =         457521.16
     GW BOUNDARY FLOW =                         GW BOUNDARY FLOW =                  

   INFLOWS - OUTFLOWS =        4.2614D+07     INFLOWS - OUTFLOWS =       -1861345.61
             --------                                   --------

 TOTAL STORAGE CHANGE =        3.9859D+07         STORAGE CHANGE =       -1870834.32
       --------------                             --------------
         LAND SURFACE =        3.7468D+07           LAND SURFACE =        -472696.86
            SOIL ZONE =        1.4431D+07              SOIL ZONE =        -520240.69
     UNSATURATED ZONE =          87673.57       UNSATURATED ZONE =          23796.01
       SATURATED ZONE =       -1.5264D+07         SATURATED ZONE =        -180159.41
                LAKES =        3136570.65                  LAKES =        -721533.38

 OVERALL BUDGET ERROR =        2755243.90           BUDGET ERROR =           9488.71


  PERCENT DISCREPANCY =              1.31    PERCENT DISCREPANCY =              0.51



1
 SUMMARY VOLUMETRIC BUDGET FOR GSFLOW 
 DATE: 01 20 1981              CUMULATIVE TIME STEP:     112
 MODFLOW STRESS PERIOD      1     CURRENT TIME STEP:     112     ITERATIONS:      12

 -----------------------------------------------------------------------------------

   CUMULATIVE VOLUMES               L**3   RATES FOR THIS TIME STEP           L**3/T
   ------------------                      ------------------------

                                     IN                                         IN
                                     --                                         --
        PRECIPITATION =        2.2423D+08          PRECIPITATION =        6001392.59
           STREAMFLOW =                               STREAMFLOW =                  
     GW BOUNDARY FLOW =                         GW BOUNDARY FLOW =                  


                                    OUT                                        OUT
                                    ---                                        ---
   EVAPOTRANSPIRATION =        1.4498D+08     EVAPOTRANSPIRATION =        1812032.77
           STREAMFLOW =        3.9241D+07             STREAMFLOW =         485521.72
     GW BOUNDARY FLOW =                         GW BOUNDARY FLOW =                  

   INFLOWS - OUTFLOWS =        4.0007D+07     INFLOWS - OUTFLOWS =        3703838.10
             --------                                   --------

 TOTAL STORAGE CHANGE =        3.7026D+07         STORAGE CHANGE =        3594716.38
       --------------                             --------------
         LAND SURFACE =        3.4618D+07           LAND SURFACE =         551847.56
            SOIL ZONE =        1.5991D+07              SOIL ZONE =        1363859.56
     UNSATURATED ZONE =         522367.86       UNSATURATED ZONE =         135779.00
       SATURATED ZONE =       -1.5904D+07         SATURATED ZONE =          85718.62
                LAKES =        1799939.42                  LAKES =        1457511.62

 OVERALL BUDGET ERROR =        2981125.36           BUDGET ERROR =         109121.72


  PERCENT DISCREPANCY =              1.34    PERCENT DISCREPANCY =              1.83



1
 SUMMARY VOLUMETRIC BUDGET FOR GSFLOW 
 DATE: 01 27 1981              CUMULATIVE TIME STEP:     119
 MODFLOW STRESS PERIOD      1     CURRENT TIME STEP:     119     ITERATIONS:      15

 -----------------------------------------------------------------------------------

   CUMULATIVE VOLUMES               L**3   RATES FOR THIS TIME STEP           L**3/T
   ------------------                      ------------------------

                                     IN                                         IN
                                     --                                         --
        PRECIPITATION =        3.3525D+08          PRECIPITATION =        6.0014D+07
           STREAMFLOW =                               STREAMFLOW =                  
     GW BOUNDARY FLOW =                         GW BOUNDARY FLOW =                  


                                    OUT                                        OUT
                                    ---                                        ---
   EVAPOTRANSPIRATION =        1.5407D+08     EVAPOTRANSPIRATION =         663125.29
           STREAMFLOW =        4.1752D+07             STREAMFLOW =         345811.31
     GW BOUNDARY FLOW =                         GW BOUNDARY FLOW =                  

   INFLOWS - OUTFLOWS =        1.3943D+08     INFLOWS - OUTFLOWS =        5.9005D+07
             --------                                   --------

 TOTAL STORAGE CHANGE =        1.3631D+08         STORAGE CHANGE =        5.8966D+07
       --------------                             --------------
         LAND SURFACE =        1.0380D+08           LAND SURFACE =        4.0704D+07
            SOIL ZONE =        1.8074D+07              SOIL ZONE =        1754160.16
     UNSATURATED ZONE =        1201235.11       UNSATURATED ZONE =         120399.08
       SATURATED ZONE =       -1.6481D+07         SATURATED ZONE =          78805.86
                LAKES =        2.9715D+07                  LAKES =        1.6308D+07

 OVERALL BUDGET ERROR =        3123990.79           BUDGET ERROR =          38881.88


  PERCENT DISCREPANCY =              0.94    PERCENT DISCREPANCY =              0.06



1
 SUMMARY VOLUMETRIC BUDGET FOR GSFLOW 
 DATE: 02 03 1981              CUMULATIVE TIME STEP:     126
 MODFLOW STRESS PERIOD      1     CURRENT TIME STEP:     126     ITERATIONS:      21

 -----------------------------------------------------------------------------------

   CUMULATIVE VOLUMES               L**3   RATES FOR THIS TIME STEP           L**3/T
   ------------------                      ------------------------

                                     IN                                         IN
                                     --                                         --
        PRECIPITATION =        4.0137D+08          PRECIPITATION =                  
           STREAMFLOW =                               STREAMFLOW =                  
     GW BOUNDARY FLOW =                         GW BOUNDARY FLOW =                  


                                    OUT                                        OUT
                                    ---                                        ---
   EVAPOTRANSPIRATION =        1.5769D+08     EVAPOTRANSPIRATION =         897749.75
           STREAMFLOW =        4.4232D+07             STREAMFLOW =         354891.78
     GW BOUNDARY FLOW =                         GW BOUNDARY FLOW =                  

   INFLOWS - OUTFLOWS =        1.9944D+08     INFLOWS - OUTFLOWS =       -1252641.53
             --------                                   --------

 TOTAL STORAGE CHANGE =        1.9654D+08         STORAGE CHANGE =       -1277460.60
       --------------                             --------------
         LAND SURFACE =        1.5000D+08           LAND SURFACE =        -514046.87
            SOIL ZONE =        1.7075D+07              SOIL ZONE =        -141383.35
     UNSATURATED ZONE =        1624569.22       UNSATURATED ZONE =          30791.21
       SATURATED ZONE =       -1.7719D+07         SATURATED ZONE =        -175666.81
                LAKES =        4.5560D+07                  LAKES =        -477154.78

 OVERALL BUDGET ERROR =        2906303.24           BUDGET ERROR =          24819.07


  PERCENT DISCREPANCY =              0.73    PERCENT DISCREPANCY =              1.96



1
 SUMMARY VOLUMETRIC BUDGET FOR GSFLOW 
 DATE: 02 10 1981              CUMULATIVE TIME STEP:     133
 MODFLOW STRESS PERIOD      1     CURRENT TIME STEP:     133     ITERATIONS:       3

 -----------------------------------------------------------------------------------

   CUMULATIVE VOLUMES               L**3   RATES FOR THIS TIME STEP           L**3/T
   ------------------                      ------------------------

                                     IN                                         IN
                                     --                                         --
        PRECIPITATION =        4.1375D+08          PRECIPITATION =        3095932.43
           STREAMFLOW =                               STREAMFLOW =                  
     GW BOUNDARY FLOW =                         GW BOUNDARY FLOW =                  


                                    OUT                                        OUT
                                    ---                                        ---
   EVAPOTRANSPIRATION =        1.6309D+08     EVAPOTRANSPIRATION =         577879.06
           STREAMFLOW =        4.6626D+07             STREAMFLOW =         340304.91
     GW BOUNDARY FLOW =                         GW BOUNDARY FLOW =                  

   INFLOWS - OUTFLOWS =        2.0403D+08     INFLOWS - OUTFLOWS =        2177748.46
             --------                                   --------

 TOTAL STORAGE CHANGE =        2.0099D+08         STORAGE CHANGE =        2149985.99
       --------------                             --------------
         LAND SURFACE =        1.5542D+08           LAND SURFACE =        1647975.48
            SOIL ZONE =        1.6988D+07              SOIL ZONE =         193620.68
     UNSATURATED ZONE =        1701793.62       UNSATURATED ZONE =           8209.01
       SATURATED ZONE =       -1.8826D+07         SATURATED ZONE =        -150562.53
                LAKES =        4.5711D+07                  LAKES =         450743.34

 OVERALL BUDGET ERROR =        3043755.65           BUDGET ERROR =          27762.48


  PERCENT DISCREPANCY =              0.74    PERCENT DISCREPANCY =              0.90



1
 SUMMARY VOLUMETRIC BUDGET FOR GSFLOW 
 DATE: 02 17 1981              CUMULATIVE TIME STEP:     140
 MODFLOW STRESS PERIOD      1     CURRENT TIME STEP:     140     ITERATIONS:      32

 -----------------------------------------------------------------------------------

   CUMULATIVE VOLUMES               L**3   RATES FOR THIS TIME STEP           L**3/T
   ------------------                      ------------------------

                                     IN                                         IN
                                     --                                         --
        PRECIPITATION =        4.6328D+08          PRECIPITATION =                  
           STREAMFLOW =                               STREAMFLOW =                  
     GW BOUNDARY FLOW =                         GW BOUNDARY FLOW =                  


                                    OUT                                        OUT
                                    ---                                        ---
   EVAPOTRANSPIRATION =        1.7438D+08     EVAPOTRANSPIRATION =        2612618.77
           STREAMFLOW =        4.8976D+07             STREAMFLOW =         285389.16
     GW BOUNDARY FLOW =                         GW BOUNDARY FLOW =                  

   INFLOWS - OUTFLOWS =        2.3992D+08     INFLOWS - OUTFLOWS =       -2898007.93
             --------                                   --------

 TOTAL STORAGE CHANGE =        2.3625D+08         STORAGE CHANGE =       -2957890.27
       --------------                             --------------
         LAND SURFACE =        1.6983D+08           LAND SURFACE =       -2316327.39
            SOIL ZONE =        2.3847D+07              SOIL ZONE =         -56463.09
     UNSATURATED ZONE =        2735783.63       UNSATURATED ZONE =         187345.03
       SATURATED ZONE =       -1.8916D+07         SATURATED ZONE =        -127188.06
                LAKES =        5.8754D+07                  LAKES =        -645256.75

 OVERALL BUDGET ERROR =        3668652.71           BUDGET ERROR =          59882.34


  PERCENT DISCREPANCY =              0.80    PERCENT DISCREPANCY =              2.05



1
 SUMMARY VOLUMETRIC BUDGET FOR GSFLOW 
 DATE: 02 24 1981              CUMULATIVE TIME STEP:     147
 MODFLOW STRESS PERIOD      1     CURRENT TIME STEP:     147     ITERATIONS:      15

 -----------------------------------------------------------------------------------

   CUMULATIVE VOLUMES               L**3   RATES FOR THIS TIME STEP           L**3/T
   ------------------                      ------------------------

                                     IN                                         IN
                                     --                                         --
        PRECIPITATION =        4.8805D+08          PRECIPITATION =        1.8576D+07
           STREAMFLOW =                               STREAMFLOW =                  
     GW BOUNDARY FLOW =                         GW BOUNDARY FLOW =                  


                                    OUT                                        OUT
                                    ---                                        ---
   EVAPOTRANSPIRATION =        1.8775D+08     EVAPOTRANSPIRATION =        1355053.68
           STREAMFLOW =        5.0060D+07             STREAMFLOW =         143123.89
     GW BOUNDARY FLOW =                         GW BOUNDARY FLOW =                  

   INFLOWS - OUTFLOWS =        2.5024D+08     INFLOWS - OUTFLOWS =        1.7077D+07
             --------                                   --------

 TOTAL STORAGE CHANGE =        2.4610D+08         STORAGE CHANGE =        1.7033D+07
       --------------                             --------------
         LAND SURFACE =        1.6962D+08           LAND SURFACE =        1.0824D+07
            SOIL ZONE =        2.6076D+07              SOIL ZONE =         470165.08
     UNSATURATED ZONE =        1558567.67       UNSATURATED ZONE =         343297.57
       SATURATED ZONE =       -1.7097D+07         SATURATED ZONE =          48407.69
                LAKES =        6.5947D+07                  LAKES =        5347858.50

 OVERALL BUDGET ERROR =        4137420.33           BUDGET ERROR =          43948.64


  PERCENT DISCREPANCY =              0.85    PERCENT DISCREPANCY =              0.24



1
 SUMMARY VOLUMETRIC BUDGET FOR GSFLOW 
 DATE: 03 03 1981              CUMULATIVE TIME STEP:     154
 MODFLOW STRESS PERIOD      1     CURRENT TIME STEP:     154     ITERATIONS:      16

 -----------------------------------------------------------------------------------

   CUMULATIVE VOLUMES               L**3   RATES FOR THIS TIME STEP           L**3/T
   ------------------                      ------------------------

                                     IN                                         IN
                                     --                                         --
        PRECIPITATION =        5.0056D+08          PRECIPITATION =                  
           STREAMFLOW =                               STREAMFLOW =                  
     GW BOUNDARY FLOW =                         GW BOUNDARY FLOW =                  


                                    OUT                                        OUT
                                    ---                                        ---
   EVAPOTRANSPIRATION =        1.9627D+08     EVAPOTRANSPIRATION =        2160699.05
           STREAMFLOW =        5.1106D+07             STREAMFLOW =         161574.77
     GW BOUNDARY FLOW =                         GW BOUNDARY FLOW =                  

   INFLOWS - OUTFLOWS =        2.5319D+08     INFLOWS - OUTFLOWS =       -2322273.81
             --------                                   --------

 TOTAL STORAGE CHANGE =        2.4887D+08         STORAGE CHANGE =       -2344899.87
       --------------                             --------------
         LAND SURFACE =        1.7232D+08           LAND SURFACE =       -1112915.94
            SOIL ZONE =        2.4192D+07              SOIL ZONE =        -375975.80
     UNSATURATED ZONE =        2526228.97       UNSATURATED ZONE =          66143.96
       SATURATED ZONE =       -1.8334D+07         SATURATED ZONE =        -179123.59
                LAKES =        6.8169D+07                  LAKES =        -743028.50

 OVERALL BUDGET ERROR =        4311859.82           BUDGET ERROR =          22626.05


  PERCENT DISCREPANCY =              0.87    PERCENT DISCREPANCY =              0.97



1
 SUMMARY VOLUMETRIC BUDGET FOR GSFLOW 
 DATE: 03 10 1981              CUMULATIVE TIME STEP:     161
 MODFLOW STRESS PERIOD      1     CURRENT TIME STEP:     161     ITERATIONS:      42

 -----------------------------------------------------------------------------------

   CUMULATIVE VOLUMES               L**3   RATES FOR THIS TIME STEP           L**3/T
   ------------------                      ------------------------

                                     IN                                         IN
                                     --                                         --
        PRECIPITATION =        5.0378D+08          PRECIPITATION =        3221591.34
           STREAMFLOW =                               STREAMFLOW =                  
     GW BOUNDARY FLOW =                         GW BOUNDARY FLOW =                  


                                    OUT                                        OUT
                                    ---                                        ---
   EVAPOTRANSPIRATION =        2.1334D+08     EVAPOTRANSPIRATION =        1910880.83
           STREAMFLOW =        5.2250D+07             STREAMFLOW =         163871.41
     GW BOUNDARY FLOW =                         GW BOUNDARY FLOW =                  

   INFLOWS - OUTFLOWS =        2.3819D+08     INFLOWS - OUTFLOWS =        1146839.09
             --------                                   --------

 TOTAL STORAGE CHANGE =        2.3367D+08         STORAGE CHANGE =        1114171.54
       --------------                             --------------
         LAND SURFACE =        1.5960D+08           LAND SURFACE =       -1847354.72
            SOIL ZONE =        2.4732D+07              SOIL ZONE =        1270302.86
     UNSATURATED ZONE =        2988874.88       UNSATURATED ZONE =         158857.14
       SATURATED ZONE =       -1.8856D+07         SATURATED ZONE =         135918.38
                LAKES =        6.5200D+07                  LAKES =        1396447.88

 OVERALL BUDGET ERROR =        4522134.65           BUDGET ERROR =          32667.56


  PERCENT DISCREPANCY =              0.90    PERCENT DISCREPANCY =              1.02



1
 SUMMARY VOLUMETRIC BUDGET FOR GSFLOW 
 DATE: 03 17 1981              CUMULATIVE TIME STEP:     168
 MODFLOW STRESS PERIOD      1     CURRENT TIME STEP:     168     ITERATIONS:      33

 -----------------------------------------------------------------------------------

   CUMULATIVE VOLUMES               L**3   RATES FOR THIS TIME STEP           L**3/T
   ------------------                      ------------------------

                                     IN                                         IN
                                     --                                         --
        PRECIPITATION =        5.1345D+08          PRECIPITATION =        3221591.34
           STREAMFLOW =                               STREAMFLOW =                  
     GW BOUNDARY FLOW =                         GW BOUNDARY FLOW =                  


                                    OUT                                        OUT
                                    ---                                        ---
   EVAPOTRANSPIRATION =        2.2791D+08     EVAPOTRANSPIRATION =        1041970.13
           STREAMFLOW =        5.3446D+07             STREAMFLOW =         174561.34
     GW BOUNDARY FLOW =                         GW BOUNDARY FLOW =                  

   INFLOWS - OUTFLOWS =        2.3209D+08     INFLOWS - OUTFLOWS =        2005059.86
             --------                                   --------

 TOTAL STORAGE CHANGE =        2.2743D+08         STORAGE CHANGE =        1980331.84
       --------------                             --------------
         LAND SURFACE =        1.5550D+08           LAND SURFACE =        1505005.03
            SOIL ZONE =        2.3801D+07              SOIL ZONE =          25483.90
     UNSATURATED ZONE =        3582428.50       UNSATURATED ZONE =        -103495.82
       SATURATED ZONE =       -1.9576D+07         SATURATED ZONE =           1909.67
                LAKES =        6.4120D+07                  LAKES =         551429.06

 OVERALL BUDGET ERROR =        4666709.93           BUDGET ERROR =          24728.02


  PERCENT DISCREPANCY =              0.91    PERCENT DISCREPANCY =              0.77



1
 SUMMARY VOLUMETRIC BUDGET FOR GSFLOW 
 DATE: 03 24 1981              CUMULATIVE TIME STEP:     175
 MODFLOW STRESS PERIOD      1     CURRENT TIME STEP:     175     ITERATIONS:      21

 -----------------------------------------------------------------------------------

   CUMULATIVE VOLUMES               L**3   RATES FOR THIS TIME STEP           L**3/T
   ------------------                      ------------------------

                                     IN                                         IN
                                     --                                         --
        PRECIPITATION =        5.7144D+08          PRECIPITATION =        6443182.67
           STREAMFLOW =                               STREAMFLOW =                  
     GW BOUNDARY FLOW =                         GW BOUNDARY FLOW =                  


                                    OUT                                        OUT
                                    ---                                        ---
   EVAPOTRANSPIRATION =        2.4182D+08     EVAPOTRANSPIRATION =        1710095.73
           STREAMFLOW =        5.4582D+07             STREAMFLOW =         164598.83
     GW BOUNDARY FLOW =                         GW BOUNDARY FLOW =                  

   INFLOWS - OUTFLOWS =        2.7504D+08     INFLOWS - OUTFLOWS =        4568488.11
             --------                                   --------

 TOTAL STORAGE CHANGE =        2.7012D+08         STORAGE CHANGE =        4530398.14
       --------------                             --------------
         LAND SURFACE =        1.8290D+08           LAND SURFACE =        1419532.70
            SOIL ZONE =        2.6095D+07              SOIL ZONE =         785260.68
     UNSATURATED ZONE =        4502962.69       UNSATURATED ZONE =         179240.71
       SATURATED ZONE =       -2.0015D+07         SATURATED ZONE =          90683.80
                LAKES =        7.6638D+07                  LAKES =        2055680.25

 OVERALL BUDGET ERROR =        4920037.29           BUDGET ERROR =          38089.98


  PERCENT DISCREPANCY =              0.86    PERCENT DISCREPANCY =              0.59



1
 SUMMARY VOLUMETRIC BUDGET FOR GSFLOW 
 DATE: 03 31 1981              CUMULATIVE TIME STEP:     182
 MODFLOW STRESS PERIOD      1     CURRENT TIME STEP:     182     ITERATIONS:      28

 -----------------------------------------------------------------------------------

   CUMULATIVE VOLUMES               L**3   RATES FOR THIS TIME STEP           L**3/T
   ------------------                      ------------------------

                                     IN                                         IN
                                     --                                         --
        PRECIPITATION =        6.3587D+08          PRECIPITATION =        6443182.67
           STREAMFLOW =                               STREAMFLOW =                  
     GW BOUNDARY FLOW =                         GW BOUNDARY FLOW =                  


                                    OUT                                        OUT
                                    ---                                        ---
   EVAPOTRANSPIRATION =        2.5632D+08     EVAPOTRANSPIRATION =        1135698.65
           STREAMFLOW =        5.5754D+07             STREAMFLOW =         154066.59
     GW BOUNDARY FLOW =                         GW BOUNDARY FLOW =                  

   INFLOWS - OUTFLOWS =        3.2380D+08     INFLOWS - OUTFLOWS =        5153417.43
             --------                                   --------

 TOTAL STORAGE CHANGE =        3.1888D+08         STORAGE CHANGE =        5114667.44
       --------------                             --------------
         LAND SURFACE =        2.0791D+08           LAND SURFACE =        2593093.23
            SOIL ZONE =        2.7738D+07              SOIL ZONE =         491036.04
     UNSATURATED ZONE =        1374173.15       UNSATURATED ZONE =         179751.25
       SATURATED ZONE =       -1.6478D+07         SATURATED ZONE =         -32574.45
                LAKES =        9.8332D+07                  LAKES =        1883361.38

 OVERALL BUDGET ERROR =        4917900.08           BUDGET ERROR =          38749.99


  PERCENT DISCREPANCY =              0.78    PERCENT DISCREPANCY =              0.60



1
 SUMMARY VOLUMETRIC BUDGET FOR GSFLOW 
 DATE: 04 07 1981              CUMULATIVE TIME STEP:     189
 MODFLOW STRESS PERIOD      1     CURRENT TIME STEP:     189     ITERATIONS:      49

 -----------------------------------------------------------------------------------

   CUMULATIVE VOLUMES               L**3   RATES FOR THIS TIME STEP           L**3/T
   ------------------                      ------------------------

                                     IN                                         IN
                                     --                                         --
        PRECIPITATION =        6.5328D+08          PRECIPITATION =                  
           STREAMFLOW =                               STREAMFLOW =                  
     GW BOUNDARY FLOW =                         GW BOUNDARY FLOW =                  


                                    OUT                                        OUT
                                    ---                                        ---
   EVAPOTRANSPIRATION =        2.7945D+08     EVAPOTRANSPIRATION =        4247288.66
           STREAMFLOW =        5.6884D+07             STREAMFLOW =         203682.59
     GW BOUNDARY FLOW =                         GW BOUNDARY FLOW =                  

   INFLOWS - OUTFLOWS =        3.1695D+08     INFLOWS - OUTFLOWS =       -4450971.26
             --------                                   --------

 TOTAL STORAGE CHANGE =        3.1176D+08         STORAGE CHANGE =       -4476583.82
       --------------                             --------------
         LAND SURFACE =        1.8629D+08           LAND SURFACE =       -6808849.76
            SOIL ZONE =        2.8275D+07              SOIL ZONE =         -13007.11
     UNSATURATED ZONE =        3313143.78       UNSATURATED ZONE =         340094.23
       SATURATED ZONE =       -1.5187D+07         SATURATED ZONE =         293818.19
                LAKES =        1.0907D+08                  LAKES =        1711360.62

 OVERALL BUDGET ERROR =        5187491.25           BUDGET ERROR =          25612.57


  PERCENT DISCREPANCY =              0.80    PERCENT DISCREPANCY =              0.57



1
 SUMMARY VOLUMETRIC BUDGET FOR GSFLOW 
 DATE: 04 14 1981              CUMULATIVE TIME STEP:     196
 MODFLOW STRESS PERIOD      1     CURRENT TIME STEP:     196     ITERATIONS:      37

 -----------------------------------------------------------------------------------

   CUMULATIVE VOLUMES               L**3   RATES FOR THIS TIME STEP           L**3/T
   ------------------                      ------------------------

                                     IN                                         IN
                                     --                                         --
        PRECIPITATION =        6.5328D+08          PRECIPITATION =                  
           STREAMFLOW =                               STREAMFLOW =                  
     GW BOUNDARY FLOW =                         GW BOUNDARY FLOW =                  


                                    OUT                                        OUT
                                    ---                                        ---
   EVAPOTRANSPIRATION =        3.0927D+08     EVAPOTRANSPIRATION =        5170980.96
           STREAMFLOW =        5.8130D+07             STREAMFLOW =         172000.22
     GW BOUNDARY FLOW =                         GW BOUNDARY FLOW =                  

   INFLOWS - OUTFLOWS =        2.8588D+08     INFLOWS - OUTFLOWS =       -5342981.18
             --------                                   --------

 TOTAL STORAGE CHANGE =        2.8048D+08         STORAGE CHANGE =       -5364558.60
       --------------                             --------------
         LAND SURFACE =        1.4105D+08           LAND SURFACE =       -7353371.52
            SOIL ZONE =        2.3823D+07              SOIL ZONE =        -905528.28
     UNSATURATED ZONE =        5310188.84       UNSATURATED ZONE =         248578.01
       SATURATED ZONE =       -1.3530D+07         SATURATED ZONE =         268811.94
                LAKES =        1.2383D+08                  LAKES =        2376951.25

 OVERALL BUDGET ERROR =        5395881.16           BUDGET ERROR =          21577.42


  PERCENT DISCREPANCY =              0.83    PERCENT DISCREPANCY =              0.40



1
 SUMMARY VOLUMETRIC BUDGET FOR GSFLOW 
 DATE: 04 21 1981              CUMULATIVE TIME STEP:     203
 MODFLOW STRESS PERIOD      1     CURRENT TIME STEP:     203     ITERATIONS:      53

 -----------------------------------------------------------------------------------

   CUMULATIVE VOLUMES               L**3   RATES FOR THIS TIME STEP           L**3/T
   ------------------                      ------------------------

                                     IN                                         IN
                                     --                                         --
        PRECIPITATION =        6.7418D+08          PRECIPITATION =                  
           STREAMFLOW =                               STREAMFLOW =                  
     GW BOUNDARY FLOW =                         GW BOUNDARY FLOW =                  


                                    OUT                                        OUT
                                    ---                                        ---
   EVAPOTRANSPIRATION =        3.3937D+08     EVAPOTRANSPIRATION =        5676348.58
           STREAMFLOW =        5.9345D+07             STREAMFLOW =         169579.17
     GW BOUNDARY FLOW =                         GW BOUNDARY FLOW =                  

   INFLOWS - OUTFLOWS =        2.7546D+08     INFLOWS - OUTFLOWS =       -5845927.75
             --------                                   --------

 TOTAL STORAGE CHANGE =        2.7013D+08         STORAGE CHANGE =       -5860377.64
       --------------                             --------------
         LAND SURFACE =        1.1854D+08           LAND SURFACE =       -3228226.29
            SOIL ZONE =        2.1951D+07              SOIL ZONE =       -2078812.24
     UNSATURATED ZONE =        6411861.05       UNSATURATED ZONE =          91426.98
       SATURATED ZONE =       -1.3333D+07         SATURATED ZONE =         -37106.22
                LAKES =        1.3656D+08                  LAKES =        -607659.88

 OVERALL BUDGET ERROR =        5334902.47           BUDGET ERROR =          14449.89


  PERCENT DISCREPANCY =              0.79    PERCENT DISCREPANCY =              0.25



1
 SUMMARY VOLUMETRIC BUDGET FOR GSFLOW 
 DATE: 04 28 1981              CUMULATIVE TIME STEP:     210
 MODFLOW STRESS PERIOD      1     CURRENT TIME STEP:     210     ITERATIONS:      47

 -----------------------------------------------------------------------------------

   CUMULATIVE VOLUMES               L**3   RATES FOR THIS TIME STEP           L**3/T
   ------------------                      ------------------------

                                     IN                                         IN
                                     --                                         --
        PRECIPITATION =        6.8114D+08          PRECIPITATION =                  
           STREAMFLOW =                               STREAMFLOW =                  
     GW BOUNDARY FLOW =                         GW BOUNDARY FLOW =                  


                                    OUT                                        OUT
                                    ---                                        ---
   EVAPOTRANSPIRATION =        3.8077D+08     EVAPOTRANSPIRATION =        5632408.00
           STREAMFLOW =        6.0557D+07             STREAMFLOW =         169029.37
     GW BOUNDARY FLOW =                         GW BOUNDARY FLOW =                  

   INFLOWS - OUTFLOWS =        2.3982D+08     INFLOWS - OUTFLOWS =       -5801437.37
             --------                                   --------

 TOTAL STORAGE CHANGE =        2.3444D+08         STORAGE CHANGE =       -5807994.38
       --------------                             --------------
         LAND SURFACE =        9.3061D+07           LAND SURFACE =       -4036144.09
            SOIL ZONE =        1.1922D+07              SOIL ZONE =       -1674234.15
     UNSATURATED ZONE =        6487883.02       UNSATURATED ZONE =         -36628.92
       SATURATED ZONE =       -1.3190D+07         SATURATED ZONE =         113974.69
                LAKES =        1.3616D+08                  LAKES =        -174961.91

 OVERALL BUDGET ERROR =        5377757.84           BUDGET ERROR =           6557.01


  PERCENT DISCREPANCY =              0.79    PERCENT DISCREPANCY =              0.11



1
 SUMMARY VOLUMETRIC BUDGET FOR GSFLOW 
 DATE: 05 05 1981              CUMULATIVE TIME STEP:     217
 MODFLOW STRESS PERIOD      1     CURRENT TIME STEP:     217     ITERATIONS:      69

 -----------------------------------------------------------------------------------

   CUMULATIVE VOLUMES               L**3   RATES FOR THIS TIME STEP           L**3/T
   ------------------                      ------------------------

                                     IN                                         IN
                                     --                                         --
        PRECIPITATION =        6.8811D+08          PRECIPITATION =                  
           STREAMFLOW =                               STREAMFLOW =                  
     GW BOUNDARY FLOW =                         GW BOUNDARY FLOW =                  


                                    OUT                                        OUT
                                    ---                                        ---
   EVAPOTRANSPIRATION =        4.1880D+08     EVAPOTRANSPIRATION =        3777346.79
           STREAMFLOW =        6.1775D+07             STREAMFLOW =         173796.00
     GW BOUNDARY FLOW =                         GW BOUNDARY FLOW =                  

   INFLOWS - OUTFLOWS =        2.0754D+08     INFLOWS - OUTFLOWS =       -3951142.79
             --------                                   --------

 TOTAL STORAGE CHANGE =        2.0215D+08         STORAGE CHANGE =       -3949431.68
       --------------                             --------------
         LAND SURFACE =        6.7797D+07           LAND SURFACE =       -2954584.90
            SOIL ZONE =        5253802.32              SOIL ZONE =        -920964.35
     UNSATURATED ZONE =        5121836.06       UNSATURATED ZONE =         -70831.22
       SATURATED ZONE =       -1.2256D+07         SATURATED ZONE =         -12601.38
                LAKES =        1.3623D+08                  LAKES =           9550.16

 OVERALL BUDGET ERROR =        5388117.73           BUDGET ERROR =          -1711.11


  PERCENT DISCREPANCY =              0.79    PERCENT DISCREPANCY =             -0.04



1
 SUMMARY VOLUMETRIC BUDGET FOR GSFLOW 
 DATE: 05 12 1981              CUMULATIVE TIME STEP:     224
 MODFLOW STRESS PERIOD      1     CURRENT TIME STEP:     224     ITERATIONS:      62

 -----------------------------------------------------------------------------------

   CUMULATIVE VOLUMES               L**3   RATES FOR THIS TIME STEP           L**3/T
   ------------------                      ------------------------

                                     IN                                         IN
                                     --                                         --
        PRECIPITATION =        6.8811D+08          PRECIPITATION =                  
           STREAMFLOW =                               STREAMFLOW =                  
     GW BOUNDARY FLOW =                         GW BOUNDARY FLOW =                  


                                    OUT                                        OUT
                                    ---                                        ---
   EVAPOTRANSPIRATION =        4.4716D+08     EVAPOTRANSPIRATION =        4487477.49
           STREAMFLOW =        6.2972D+07             STREAMFLOW =         168853.17
     GW BOUNDARY FLOW =                         GW BOUNDARY FLOW =                  

   INFLOWS - OUTFLOWS =        1.7798D+08     INFLOWS - OUTFLOWS =       -4656330.66
             --------                                   --------

 TOTAL STORAGE CHANGE =        1.7259D+08         STORAGE CHANGE =       -4651047.26
       --------------                             --------------
         LAND SURFACE =        4.4652D+07           LAND SURFACE =       -3401591.14
            SOIL ZONE =       -1386548.31              SOIL ZONE =        -952962.03
     UNSATURATED ZONE =        2960847.99       UNSATURATED ZONE =        -839264.05
       SATURATED ZONE =       -1.0896D+07         SATURATED ZONE =         540104.00
                LAKES =        1.3726D+08                  LAKES =           2665.97

 OVERALL BUDGET ERROR =        5387091.49           BUDGET ERROR =          -5283.40


  PERCENT DISCREPANCY =              0.79    PERCENT DISCREPANCY =             -0.11



1
 SUMMARY VOLUMETRIC BUDGET FOR GSFLOW 
 DATE: 05 19 1981              CUMULATIVE TIME STEP:     231
 MODFLOW STRESS PERIOD      1     CURRENT TIME STEP:     231     ITERATIONS:      43

 -----------------------------------------------------------------------------------

   CUMULATIVE VOLUMES               L**3   RATES FOR THIS TIME STEP           L**3/T
   ------------------                      ------------------------

                                     IN                                         IN
                                     --                                         --
        PRECIPITATION =        7.4671D+08          PRECIPITATION =        3447112.78
           STREAMFLOW =                               STREAMFLOW =                  
     GW BOUNDARY FLOW =                         GW BOUNDARY FLOW =                  


                                    OUT                                        OUT
                                    ---                                        ---
   EVAPOTRANSPIRATION =        4.6525D+08     EVAPOTRANSPIRATION =        1758863.41
           STREAMFLOW =        6.4162D+07             STREAMFLOW =         172527.06
     GW BOUNDARY FLOW =                         GW BOUNDARY FLOW =                  

   INFLOWS - OUTFLOWS =        2.1730D+08     INFLOWS - OUTFLOWS =        1515722.31
             --------                                   --------

 TOTAL STORAGE CHANGE =        2.1216D+08         STORAGE CHANGE =        1514437.62
       --------------                             --------------
         LAND SURFACE =        4.8302D+07           LAND SURFACE =       -3469349.28
            SOIL ZONE =        1.0091D+07              SOIL ZONE =        2136408.52
     UNSATURATED ZONE =        2780689.91       UNSATURATED ZONE =         -16801.94
       SATURATED ZONE =       -1.0429D+07         SATURATED ZONE =          67979.08
                LAKES =        1.6141D+08                  LAKES =        2796201.25

 OVERALL BUDGET ERROR =        5138888.33           BUDGET ERROR =           1284.69


  PERCENT DISCREPANCY =              0.69    PERCENT DISCREPANCY =              0.04



1
 SUMMARY VOLUMETRIC BUDGET FOR GSFLOW 
 DATE: 05 26 1981              CUMULATIVE TIME STEP:     238
 MODFLOW STRESS PERIOD      1     CURRENT TIME STEP:     238     ITERATIONS:      16

 -----------------------------------------------------------------------------------

   CUMULATIVE VOLUMES               L**3   RATES FOR THIS TIME STEP           L**3/T
   ------------------                      ------------------------

                                     IN                                         IN
                                     --                                         --
        PRECIPITATION =        7.7429D+08          PRECIPITATION =        1.7236D+07
           STREAMFLOW =                               STREAMFLOW =                  
     GW BOUNDARY FLOW =                         GW BOUNDARY FLOW =                  


                                    OUT                                        OUT
                                    ---                                        ---
   EVAPOTRANSPIRATION =        4.9677D+08     EVAPOTRANSPIRATION =        2648209.72
           STREAMFLOW =        6.5363D+07             STREAMFLOW =         180466.05
     GW BOUNDARY FLOW =                         GW BOUNDARY FLOW =                  

   INFLOWS - OUTFLOWS =        2.1215D+08     INFLOWS - OUTFLOWS =        1.4407D+07
             --------                                   --------

 TOTAL STORAGE CHANGE =        2.0655D+08         STORAGE CHANGE =        1.4228D+07
       --------------                             --------------
         LAND SURFACE =        3.1890D+07           LAND SURFACE =        -275022.79
            SOIL ZONE =        8660426.49              SOIL ZONE =        4715580.65
     UNSATURATED ZONE =        2605586.76       UNSATURATED ZONE =          12320.22
       SATURATED ZONE =       -9975246.62         SATURATED ZONE =         556489.12
                LAKES =        1.7337D+08                  LAKES =        9218631.00

 OVERALL BUDGET ERROR =        5606704.01           BUDGET ERROR =         178889.68


  PERCENT DISCREPANCY =              0.73    PERCENT DISCREPANCY =              1.04



1
 SUMMARY VOLUMETRIC BUDGET FOR GSFLOW 
 DATE: 06 02 1981              CUMULATIVE TIME STEP:     245
 MODFLOW STRESS PERIOD      1     CURRENT TIME STEP:     245     ITERATIONS:      66

 -----------------------------------------------------------------------------------

   CUMULATIVE VOLUMES               L**3   RATES FOR THIS TIME STEP           L**3/T
   ------------------                      ------------------------

                                     IN                                         IN
                                     --                                         --
        PRECIPITATION =        7.7429D+08          PRECIPITATION =                  
           STREAMFLOW =                               STREAMFLOW =                  
     GW BOUNDARY FLOW =                         GW BOUNDARY FLOW =                  


                                    OUT                                        OUT
                                    ---                                        ---
   EVAPOTRANSPIRATION =        5.3770D+08     EVAPOTRANSPIRATION =        5801877.63
           STREAMFLOW =        6.6583D+07             STREAMFLOW =         178725.95
     GW BOUNDARY FLOW =                         GW BOUNDARY FLOW =                  

   INFLOWS - OUTFLOWS =        1.7001D+08     INFLOWS - OUTFLOWS =       -5980603.59
             --------                                   --------

 TOTAL STORAGE CHANGE =        1.6440D+08         STORAGE CHANGE =       -5978482.47
       --------------                             --------------
         LAND SURFACE =        1.9162D+07           LAND SURFACE =       -1524432.06
            SOIL ZONE =       -7612829.00              SOIL ZONE =       -1966476.21
     UNSATURATED ZONE =       -1988099.25       UNSATURATED ZONE =        -125481.25
       SATURATED ZONE =       -8400898.29         SATURATED ZONE =        -221642.45
                LAKES =        1.6324D+08                  LAKES =       -2140450.50

 OVERALL BUDGET ERROR =        5606808.06           BUDGET ERROR =          -2121.11


  PERCENT DISCREPANCY =              0.73    PERCENT DISCREPANCY =             -0.04



1
 SUMMARY VOLUMETRIC BUDGET FOR GSFLOW 
 DATE: 06 09 1981              CUMULATIVE TIME STEP:     252
 MODFLOW STRESS PERIOD      1     CURRENT TIME STEP:     252     ITERATIONS:      55

 -----------------------------------------------------------------------------------

   CUMULATIVE VOLUMES               L**3   RATES FOR THIS TIME STEP           L**3/T
   ------------------                      ------------------------

                                     IN                                         IN
                                     --                                         --
        PRECIPITATION =        7.7752D+08          PRECIPITATION =                  
           STREAMFLOW =                               STREAMFLOW =                  
     GW BOUNDARY FLOW =                         GW BOUNDARY FLOW =                  


                                    OUT                                        OUT
                                    ---                                        ---
   EVAPOTRANSPIRATION =        5.7452D+08     EVAPOTRANSPIRATION =        5413999.92
           STREAMFLOW =        6.7827D+07             STREAMFLOW =         203133.83
     GW BOUNDARY FLOW =                         GW BOUNDARY FLOW =                  

   INFLOWS - OUTFLOWS =        1.3517D+08     INFLOWS - OUTFLOWS =       -5617133.75
             --------                                   --------

 TOTAL STORAGE CHANGE =        1.2954D+08         STORAGE CHANGE =       -5616257.33
       --------------                             --------------
         LAND SURFACE =        9796535.79           LAND SURFACE =        -964195.82
            SOIL ZONE =       -1.8502D+07              SOIL ZONE =       -1819629.42
     UNSATURATED ZONE =       -2817451.68       UNSATURATED ZONE =        -126325.48
       SATURATED ZONE =       -9632845.57         SATURATED ZONE =        -221017.61
                LAKES =        1.5070D+08                  LAKES =       -2485089.00

 OVERALL BUDGET ERROR =        5632055.03           BUDGET ERROR =           -876.42


  PERCENT DISCREPANCY =              0.73    PERCENT DISCREPANCY =             -0.02



1
 SUMMARY VOLUMETRIC BUDGET FOR GSFLOW 
 DATE: 06 16 1981              CUMULATIVE TIME STEP:     259
 MODFLOW STRESS PERIOD      1     CURRENT TIME STEP:     259     ITERATIONS:      27

 -----------------------------------------------------------------------------------

   CUMULATIVE VOLUMES               L**3   RATES FOR THIS TIME STEP           L**3/T
   ------------------                      ------------------------

                                     IN                                         IN
                                     --                                         --
        PRECIPITATION =        7.7752D+08          PRECIPITATION =                  
           STREAMFLOW =                               STREAMFLOW =                  
     GW BOUNDARY FLOW =                         GW BOUNDARY FLOW =                  


                                    OUT                                        OUT
                                    ---                                        ---
   EVAPOTRANSPIRATION =        6.0222D+08     EVAPOTRANSPIRATION =        4685754.49
           STREAMFLOW =        7.0935D+07             STREAMFLOW =         702199.94
     GW BOUNDARY FLOW =                         GW BOUNDARY FLOW =                  

   INFLOWS - OUTFLOWS =        1.0437D+08     INFLOWS - OUTFLOWS =       -5387954.43
             --------                                   --------

 TOTAL STORAGE CHANGE =        9.8709D+07         STORAGE CHANGE =       -5385120.40
[...]
           STREAMFLOW =        1.6168D+09             STREAMFLOW =        4966705.50
     GW BOUNDARY FLOW =                         GW BOUNDARY FLOW =                  

   INFLOWS - OUTFLOWS =        1.0335D+09     INFLOWS - OUTFLOWS =        1138094.83
             --------                                   --------

 TOTAL STORAGE CHANGE =        1.0041D+09         STORAGE CHANGE =        1121319.17
       --------------                             --------------
         LAND SURFACE =        3.3540D+08           LAND SURFACE =        4606953.51
            SOIL ZONE =        5170245.03              SOIL ZONE =         -71012.19
     UNSATURATED ZONE =        1039898.39       UNSATURATED ZONE =           4411.22
       SATURATED ZONE =       -5.4738D+07         SATURATED ZONE =        -150056.88
                LAKES =        7.1718D+08                  LAKES =       -3268976.50

 OVERALL BUDGET ERROR =        2.9496D+07           BUDGET ERROR =          16775.66


  PERCENT DISCREPANCY =              0.53    PERCENT DISCREPANCY =              0.26



1
 SUMMARY VOLUMETRIC BUDGET FOR GSFLOW 
 DATE: 12 06 1983              CUMULATIVE TIME STEP:    1162
 MODFLOW STRESS PERIOD      1     CURRENT TIME STEP:    1162     ITERATIONS:      11

 -----------------------------------------------------------------------------------

   CUMULATIVE VOLUMES               L**3   RATES FOR THIS TIME STEP           L**3/T
   ------------------                      ------------------------

                                     IN                                         IN
                                     --                                         --
        PRECIPITATION =        5.6038D+09          PRECIPITATION =        3198161.89
           STREAMFLOW =                               STREAMFLOW =                  
     GW BOUNDARY FLOW =                         GW BOUNDARY FLOW =                  


                                    OUT                                        OUT
                                    ---                                        ---
   EVAPOTRANSPIRATION =        2.8996D+09     EVAPOTRANSPIRATION =         185782.93
           STREAMFLOW =        1.6522D+09             STREAMFLOW =        5064639.00
     GW BOUNDARY FLOW =                         GW BOUNDARY FLOW =                  

   INFLOWS - OUTFLOWS =        1.0520D+09     INFLOWS - OUTFLOWS =       -2052260.03
             --------                                   --------

 TOTAL STORAGE CHANGE =        1.0223D+09         STORAGE CHANGE =       -2069564.84
       --------------                             --------------
         LAND SURFACE =        3.7376D+08           LAND SURFACE =        2296320.51
            SOIL ZONE =        5737199.13              SOIL ZONE =        -131696.89
     UNSATURATED ZONE =        1309973.71       UNSATURATED ZONE =          18964.70
       SATURATED ZONE =       -5.5760D+07         SATURATED ZONE =        -153850.16
                LAKES =        6.9722D+08                  LAKES =       -4099303.00

 OVERALL BUDGET ERROR =        2.9730D+07           BUDGET ERROR =          17304.80


  PERCENT DISCREPANCY =              0.53    PERCENT DISCREPANCY =              0.33



1
 SUMMARY VOLUMETRIC BUDGET FOR GSFLOW 
 DATE: 12 13 1983              CUMULATIVE TIME STEP:    1169
 MODFLOW STRESS PERIOD      1     CURRENT TIME STEP:    1169     ITERATIONS:      12

 -----------------------------------------------------------------------------------

   CUMULATIVE VOLUMES               L**3   RATES FOR THIS TIME STEP           L**3/T
   ------------------                      ------------------------

                                     IN                                         IN
                                     --                                         --
        PRECIPITATION =        5.6998D+09          PRECIPITATION =        9594484.95
           STREAMFLOW =                               STREAMFLOW =                  
     GW BOUNDARY FLOW =                         GW BOUNDARY FLOW =                  


                                    OUT                                        OUT
                                    ---                                        ---
   EVAPOTRANSPIRATION =        2.9033D+09     EVAPOTRANSPIRATION =         226532.16
           STREAMFLOW =        1.6892D+09             STREAMFLOW =        5260512.00
     GW BOUNDARY FLOW =                         GW BOUNDARY FLOW =                  

   INFLOWS - OUTFLOWS =        1.1072D+09     INFLOWS - OUTFLOWS =        4107440.79
             --------                                   --------

 TOTAL STORAGE CHANGE =        1.0772D+09         STORAGE CHANGE =        4081411.21
       --------------                             --------------
         LAND SURFACE =        4.3778D+08           LAND SURFACE =        7019560.16
            SOIL ZONE =        6979977.49              SOIL ZONE =        -183662.18
     UNSATURATED ZONE =        1789088.56       UNSATURATED ZONE =          39322.29
       SATURATED ZONE =       -5.6484D+07         SATURATED ZONE =        -173308.31
                LAKES =        6.8711D+08                  LAKES =       -2620500.75

 OVERALL BUDGET ERROR =        3.0056D+07           BUDGET ERROR =          26029.58


  PERCENT DISCREPANCY =              0.53    PERCENT DISCREPANCY =              0.27



1
 SUMMARY VOLUMETRIC BUDGET FOR GSFLOW 
 DATE: 12 20 1983              CUMULATIVE TIME STEP:    1176
 MODFLOW STRESS PERIOD      1     CURRENT TIME STEP:    1176     ITERATIONS:       8

 -----------------------------------------------------------------------------------

   CUMULATIVE VOLUMES               L**3   RATES FOR THIS TIME STEP           L**3/T
   ------------------                      ------------------------

                                     IN                                         IN
                                     --                                         --
        PRECIPITATION =        5.7158D+09          PRECIPITATION =                  
           STREAMFLOW =                               STREAMFLOW =                  
     GW BOUNDARY FLOW =                         GW BOUNDARY FLOW =                  


                                    OUT                                        OUT
                                    ---                                        ---
   EVAPOTRANSPIRATION =        2.9112D+09     EVAPOTRANSPIRATION =         347215.52
           STREAMFLOW =        1.7277D+09             STREAMFLOW =        5578472.50
     GW BOUNDARY FLOW =                         GW BOUNDARY FLOW =                  

   INFLOWS - OUTFLOWS =        1.0769D+09     INFLOWS - OUTFLOWS =       -5925688.02
             --------                                   --------

 TOTAL STORAGE CHANGE =        1.0465D+09         STORAGE CHANGE =       -5947107.00
       --------------                             --------------
         LAND SURFACE =        4.4092D+08           LAND SURFACE =        -229898.36
            SOIL ZONE =        7716711.29              SOIL ZONE =        -181024.74
     UNSATURATED ZONE =        2284621.10       UNSATURATED ZONE =          30149.73
       SATURATED ZONE =       -5.7473D+07         SATURATED ZONE =        -166087.12
                LAKES =        6.5301D+08                  LAKES =       -5400246.50

 OVERALL BUDGET ERROR =        3.0436D+07           BUDGET ERROR =          21418.97


  PERCENT DISCREPANCY =              0.53    PERCENT DISCREPANCY =              0.36



1
 SUMMARY VOLUMETRIC BUDGET FOR GSFLOW 
 DATE: 12 27 1983              CUMULATIVE TIME STEP:    1183
 MODFLOW STRESS PERIOD      1     CURRENT TIME STEP:    1183     ITERATIONS:      20

 -----------------------------------------------------------------------------------

   CUMULATIVE VOLUMES               L**3   RATES FOR THIS TIME STEP           L**3/T
   ------------------                      ------------------------

                                     IN                                         IN
                                     --                                         --
        PRECIPITATION =        5.8917D+09          PRECIPITATION =        9594484.95
           STREAMFLOW =                               STREAMFLOW =                  
     GW BOUNDARY FLOW =                         GW BOUNDARY FLOW =                  


                                    OUT                                        OUT
                                    ---                                        ---
   EVAPOTRANSPIRATION =        2.9134D+09     EVAPOTRANSPIRATION =         396818.20
           STREAMFLOW =        1.7667D+09             STREAMFLOW =        5677393.00
     GW BOUNDARY FLOW =                         GW BOUNDARY FLOW =                  

   INFLOWS - OUTFLOWS =        1.2116D+09     INFLOWS - OUTFLOWS =        3520273.74
             --------                                   --------

 TOTAL STORAGE CHANGE =        1.1808D+09         STORAGE CHANGE =        3453721.44
       --------------                             --------------
         LAND SURFACE =        5.6571D+08           LAND SURFACE =        5841371.55
            SOIL ZONE =        8451091.76              SOIL ZONE =         227887.12
     UNSATURATED ZONE =        2573100.99       UNSATURATED ZONE =          98592.80
       SATURATED ZONE =       -5.8089D+07         SATURATED ZONE =         -89294.52
                LAKES =        6.6217D+08                  LAKES =       -2624835.50

 OVERALL BUDGET ERROR =        3.0739D+07           BUDGET ERROR =          66552.31


  PERCENT DISCREPANCY =              0.52    PERCENT DISCREPANCY =              0.70



1
 SUMMARY VOLUMETRIC BUDGET FOR GSFLOW 
 DATE: 01 03 1984              CUMULATIVE TIME STEP:    1190
 MODFLOW STRESS PERIOD      1     CURRENT TIME STEP:    1190     ITERATIONS:       6

 -----------------------------------------------------------------------------------

   CUMULATIVE VOLUMES               L**3   RATES FOR THIS TIME STEP           L**3/T
   ------------------                      ------------------------

                                     IN                                         IN
                                     --                                         --
        PRECIPITATION =        5.9235D+09          PRECIPITATION =                  
           STREAMFLOW =                               STREAMFLOW =                  
     GW BOUNDARY FLOW =                         GW BOUNDARY FLOW =                  


                                    OUT                                        OUT
                                    ---                                        ---
   EVAPOTRANSPIRATION =        2.9198D+09     EVAPOTRANSPIRATION =        1448575.19
           STREAMFLOW =        1.8063D+09             STREAMFLOW =        5603065.50
     GW BOUNDARY FLOW =                         GW BOUNDARY FLOW =                  

   INFLOWS - OUTFLOWS =        1.1974D+09     INFLOWS - OUTFLOWS =       -7051640.69
             --------                                   --------

 TOTAL STORAGE CHANGE =        1.1663D+09         STORAGE CHANGE =       -7090371.37
       --------------                             --------------
         LAND SURFACE =        5.7870D+08           LAND SURFACE =        -976138.39
            SOIL ZONE =        9162879.33              SOIL ZONE =        -187079.47
     UNSATURATED ZONE =        3141811.79       UNSATURATED ZONE =          42275.15
       SATURATED ZONE =       -5.8969D+07         SATURATED ZONE =        -191756.66
                LAKES =        6.3423D+08                  LAKES =       -5777672.00

 OVERALL BUDGET ERROR =        3.1100D+07           BUDGET ERROR =          38730.68


  PERCENT DISCREPANCY =              0.53    PERCENT DISCREPANCY =              0.55



1
 SUMMARY VOLUMETRIC BUDGET FOR GSFLOW 
 DATE: 01 10 1984              CUMULATIVE TIME STEP:    1197
 MODFLOW STRESS PERIOD      1     CURRENT TIME STEP:    1197     ITERATIONS:       3

 -----------------------------------------------------------------------------------

   CUMULATIVE VOLUMES               L**3   RATES FOR THIS TIME STEP           L**3/T
   ------------------                      ------------------------

                                     IN                                         IN
                                     --                                         --
        PRECIPITATION =        5.9235D+09          PRECIPITATION =                  
           STREAMFLOW =                               STREAMFLOW =                  
     GW BOUNDARY FLOW =                         GW BOUNDARY FLOW =                  


                                    OUT                                        OUT
                                    ---                                        ---
   EVAPOTRANSPIRATION =        2.9322D+09     EVAPOTRANSPIRATION =        1728072.57
           STREAMFLOW =        1.8438D+09             STREAMFLOW =        5235932.00
     GW BOUNDARY FLOW =                         GW BOUNDARY FLOW =                  

   INFLOWS - OUTFLOWS =        1.1475D+09     INFLOWS - OUTFLOWS =       -6964004.57
             --------                                   --------

 TOTAL STORAGE CHANGE =        1.1161D+09         STORAGE CHANGE =       -7019212.68
       --------------                             --------------
         LAND SURFACE =        5.6643D+08           LAND SURFACE =       -2016428.23
            SOIL ZONE =        1.0286D+07              SOIL ZONE =         297142.56
     UNSATURATED ZONE =        3499626.79       UNSATURATED ZONE =          76617.67
       SATURATED ZONE =       -5.9756D+07         SATURATED ZONE =         -77117.19
                LAKES =        5.9568D+08                  LAKES =       -5299427.50

 OVERALL BUDGET ERROR =        3.1355D+07           BUDGET ERROR =          55208.12


  PERCENT DISCREPANCY =              0.53    PERCENT DISCREPANCY =              0.79



1
 SUMMARY VOLUMETRIC BUDGET FOR GSFLOW 
 DATE: 01 17 1984              CUMULATIVE TIME STEP:    1204
 MODFLOW STRESS PERIOD      1     CURRENT TIME STEP:    1204     ITERATIONS:       3

 -----------------------------------------------------------------------------------

   CUMULATIVE VOLUMES               L**3   RATES FOR THIS TIME STEP           L**3/T
   ------------------                      ------------------------

                                     IN                                         IN
                                     --                                         --
        PRECIPITATION =        5.9475D+09          PRECIPITATION =                  
           STREAMFLOW =                               STREAMFLOW =                  
     GW BOUNDARY FLOW =                         GW BOUNDARY FLOW =                  


                                    OUT                                        OUT
                                    ---                                        ---
   EVAPOTRANSPIRATION =        2.9360D+09     EVAPOTRANSPIRATION =         514479.33
           STREAMFLOW =        1.8795D+09             STREAMFLOW =        5015583.00
     GW BOUNDARY FLOW =                         GW BOUNDARY FLOW =                  

   INFLOWS - OUTFLOWS =        1.1320D+09     INFLOWS - OUTFLOWS =       -5530062.33
             --------                                   --------

 TOTAL STORAGE CHANGE =        1.1006D+09         STORAGE CHANGE =       -5544675.93
       --------------                             --------------
         LAND SURFACE =        5.8186D+08           LAND SURFACE =        -369940.34
            SOIL ZONE =        9281263.82              SOIL ZONE =        -101284.52
     UNSATURATED ZONE =        3562657.91       UNSATURATED ZONE =          -4683.72
       SATURATED ZONE =       -6.0770D+07         SATURATED ZONE =        -152599.86
                LAKES =        5.6664D+08                  LAKES =       -4916167.50

 OVERALL BUDGET ERROR =        3.1455D+07           BUDGET ERROR =          14613.60


  PERCENT DISCREPANCY =              0.53    PERCENT DISCREPANCY =              0.26



1
 SUMMARY VOLUMETRIC BUDGET FOR GSFLOW 
 DATE: 01 24 1984              CUMULATIVE TIME STEP:    1211
 MODFLOW STRESS PERIOD      1     CURRENT TIME STEP:    1211     ITERATIONS:      15

 -----------------------------------------------------------------------------------

   CUMULATIVE VOLUMES               L**3   RATES FOR THIS TIME STEP           L**3/T
   ------------------                      ------------------------

                                     IN                                         IN
                                     --                                         --
        PRECIPITATION =        5.9535D+09          PRECIPITATION =                  
           STREAMFLOW =                               STREAMFLOW =                  
     GW BOUNDARY FLOW =                         GW BOUNDARY FLOW =                  


                                    OUT                                        OUT
                                    ---                                        ---
   EVAPOTRANSPIRATION =        2.9414D+09     EVAPOTRANSPIRATION =        1047762.77
           STREAMFLOW =        1.9143D+09             STREAMFLOW =        4917688.50
     GW BOUNDARY FLOW =                         GW BOUNDARY FLOW =                  

   INFLOWS - OUTFLOWS =        1.0978D+09     INFLOWS - OUTFLOWS =       -5965451.27
             --------                                   --------

 TOTAL STORAGE CHANGE =        1.0663D+09         STORAGE CHANGE =       -5972181.18
       --------------                             --------------
         LAND SURFACE =        5.8317D+08           LAND SURFACE =        -583964.56
            SOIL ZONE =        8743481.03              SOIL ZONE =         -67872.67
     UNSATURATED ZONE =        3360318.70       UNSATURATED ZONE =         -47160.25
       SATURATED ZONE =       -6.1758D+07         SATURATED ZONE =        -130363.20
                LAKES =        5.3278D+08                  LAKES =       -5142820.50

 OVERALL BUDGET ERROR =        3.1535D+07           BUDGET ERROR =           6729.91


  PERCENT DISCREPANCY =              0.53    PERCENT DISCREPANCY =              0.11



 Number of time steps:   1217;  Number of non-convergence:   0
 MF iterations:         22731;  SZ iterations:           22778
 Average MF iterations: 18.68;  Average SZ iterations:   18.72
 Maximum MF iterations:   138;  Maximum SZ iterations:     138

MF iteration distribution:      0   23   78  100   74   48   36   38   42   34
                               38   37   44   49   28   29   20   16   40   22
                               20   17   20   16   20   20   19   13   20   14
                               17   11   14    8   19    7   22    5   11    5
                                9    8   11    5    3   14    4    9    3    6
                                3    6    5    2    5    0    4    0    1    0
                                4    1    0    4    0    1    1    1    2    2
                                0    1    0    0    0    0    1    0    1    6

SZ computation distribution:    0   20   81   99   75   44   39   38   41   36
                               38   30   50   43   32   27   24   17   34   26
                               21   17   21   16   20   20   19   13   20   14
                               17   11   14    8   19    7   22    5   11    5
                                9    8   11    5    3   14    4    9    2    7
                                3    6    5    2    5    0    4    0    1    0
                                4    1    0    4    0    1    1    1    2    2
                                0    1    0    0    0    0    1    0    1    6

