1
 SUMMARY VOLUMETRIC BUDGET FOR GSFLOW 
 DATE: 10 07 1980              CUMULATIVE TIME STEP:       7
 MODFLOW STRESS PERIOD      1     CURRENT TIME STEP:       7     ITERATIONS:       9

 -----------------------------------------------------------------------------------

   CUMULATIVE VOLUMES               L**3   RATES FOR THIS TIME STEP           L**3/T
   ------------------                      ------------------------

                                     IN                                         IN
                                     --                                         --
        PRECIPITATION =                            PRECIPITATION =                  
           STREAMFLOW =                               STREAMFLOW =                  
     GW BOUNDARY FLOW =                         GW BOUNDARY FLOW =                  


                                    OUT                                        OUT
                                    ---                                        ---
   EVAPOTRANSPIRATION =        2724885.26     EVAPOTRANSPIRATION =         222502.22
           STREAMFLOW =        1672054.77             STREAMFLOW =         183556.66
     GW BOUNDARY FLOW =                         GW BOUNDARY FLOW =                  

   INFLOWS - OUTFLOWS =       -4396940.03     INFLOWS - OUTFLOWS =        -406058.88
             --------                                   --------

 TOTAL STORAGE CHANGE =       -1.3516D+07         STORAGE CHANGE =       -1556856.52
       --------------                             --------------
         LAND SURFACE =                             LAND SURFACE =                  
            SOIL ZONE =       -1767237.57              SOIL ZONE =        -172462.26
     UNSATURATED ZONE =       -1427585.40       UNSATURATED ZONE =         -54506.94
       SATURATED ZONE =       -1355884.78         SATURATED ZONE =        -270312.94
                LAKES =       -8965196.88                  LAKES =       -1059574.38

 OVERALL BUDGET ERROR =        9118964.59           BUDGET ERROR =        1150797.64

  ***WARNING, CUMULATIVE VOLUME OFF > 5%
  ***CAUTION, FLUX RATES OFF > 10%

  PERCENT DISCREPANCY =            101.81    PERCENT DISCREPANCY =            117.25



1
 SUMMARY VOLUMETRIC BUDGET FOR GSFLOW 
 DATE: 10 14 1980              CUMULATIVE TIME STEP:      14
 MODFLOW STRESS PERIOD      1     CURRENT TIME STEP:      14     ITERATIONS:       5

 -----------------------------------------------------------------------------------

   CUMULATIVE VOLUMES               L**3   RATES FOR THIS TIME STEP           L**3/T
   ------------------                      ------------------------

                                     IN                                         IN
                                     --                                         --
        PRECIPITATION =        1.3442D+07          PRECIPITATION =        6721104.51
           STREAMFLOW =                               STREAMFLOW =                  
     GW BOUNDARY FLOW =                         GW BOUNDARY FLOW =                  


                                    OUT                                        OUT
                                    ---                                        ---
   EVAPOTRANSPIRATION =        3920385.25     EVAPOTRANSPIRATION =         208509.02
           STREAMFLOW =        2279285.68             STREAMFLOW =          34842.32
     GW BOUNDARY FLOW =                         GW BOUNDARY FLOW =                  

   INFLOWS - OUTFLOWS =        7242538.09     INFLOWS - OUTFLOWS =        6477753.17
             --------                                   --------

 TOTAL STORAGE CHANGE =       -7907105.21         STORAGE CHANGE =        6226577.87
       --------------                             --------------
         LAND SURFACE =        2552191.87           LAND SURFACE =        1584944.64
            SOIL ZONE =        4462805.75              SOIL ZONE =        3052467.76
     UNSATURATED ZONE =       -1864557.22       UNSATURATED ZONE =         -62760.88
       SATURATED ZONE =       -2790137.11         SATURATED ZONE =        -112650.52
                LAKES =       -1.0267D+07                  LAKES =        1764576.88

 OVERALL BUDGET ERROR =        1.5150D+07           BUDGET ERROR =         251175.29

  ***WARNING, CUMULATIVE VOLUME OFF > 5%
  ***WARNING, FLUX RATES OFF > 3%

  PERCENT DISCREPANCY =            109.98    PERCENT DISCREPANCY =              3.81



1
 SUMMARY VOLUMETRIC BUDGET FOR GSFLOW 
 DATE: 10 21 1980              CUMULATIVE TIME STEP:      21
 MODFLOW STRESS PERIOD      1     CURRENT TIME STEP:      21     ITERATIONS:       3

 -----------------------------------------------------------------------------------

   CUMULATIVE VOLUMES               L**3   RATES FOR THIS TIME STEP           L**3/T
   ------------------                      ------------------------

                                     IN                                         IN
                                     --                                         --
        PRECIPITATION =        1.6803D+07          PRECIPITATION =                  
           STREAMFLOW =                               STREAMFLOW =                  
     GW BOUNDARY FLOW =                         GW BOUNDARY FLOW =                  


                                    OUT                                        OUT
                                    ---                                        ---
   EVAPOTRANSPIRATION =        7127350.45     EVAPOTRANSPIRATION =         571344.75
           STREAMFLOW =        3039700.92             STREAMFLOW =         364384.81
     GW BOUNDARY FLOW =                         GW BOUNDARY FLOW =                  

   INFLOWS - OUTFLOWS =        6635709.89     INFLOWS - OUTFLOWS =        -935729.57
             --------                                   --------

 TOTAL STORAGE CHANGE =       -1.1169D+07         STORAGE CHANGE =       -1599250.95
       --------------                             --------------
         LAND SURFACE =         582235.16           LAND SURFACE =        -191386.44
            SOIL ZONE =        5269136.79              SOIL ZONE =        -414473.71
     UNSATURATED ZONE =       -2301443.14       UNSATURATED ZONE =         -56794.73
       SATURATED ZONE =       -3841659.41         SATURATED ZONE =        -163825.56
                LAKES =       -1.0877D+07                  LAKES =        -772770.50

 OVERALL BUDGET ERROR =        1.7805D+07           BUDGET ERROR =         663521.38

  ***WARNING, CUMULATIVE VOLUME OFF > 5%
  ***CAUTION, FLUX RATES OFF > 10%

  PERCENT DISCREPANCY =             93.37    PERCENT DISCREPANCY =             52.35



1
 SUMMARY VOLUMETRIC BUDGET FOR GSFLOW 
 DATE: 10 28 1980              CUMULATIVE TIME STEP:      28
 MODFLOW STRESS PERIOD      1     CURRENT TIME STEP:      28     ITERATIONS:       3

 -----------------------------------------------------------------------------------

   CUMULATIVE VOLUMES               L**3   RATES FOR THIS TIME STEP           L**3/T
   ------------------                      ------------------------

                                     IN                                         IN
                                     --                                         --
        PRECIPITATION =        4.0327D+07          PRECIPITATION =                  
           STREAMFLOW =                               STREAMFLOW =                  
     GW BOUNDARY FLOW =                         GW BOUNDARY FLOW =                  


                                    OUT                                        OUT
                                    ---                                        ---
   EVAPOTRANSPIRATION =        1.0154D+07     EVAPOTRANSPIRATION =         265729.49
           STREAMFLOW =        5483201.61             STREAMFLOW =         342842.50
     GW BOUNDARY FLOW =                         GW BOUNDARY FLOW =                  

   INFLOWS - OUTFLOWS =        2.4690D+07     INFLOWS - OUTFLOWS =        -608571.99
             --------                                   --------

 TOTAL STORAGE CHANGE =        3186816.42         STORAGE CHANGE =        -664861.95
       --------------                             --------------
         LAND SURFACE =        4873656.87           LAND SURFACE =        -161715.81
            SOIL ZONE =        1.3221D+07              SOIL ZONE =        -244957.13
     UNSATURATED ZONE =       -2535050.95       UNSATURATED ZONE =         -10709.87
       SATURATED ZONE =       -4560543.81         SATURATED ZONE =        -121977.41
                LAKES =       -7812245.83                  LAKES =        -125501.73

 OVERALL BUDGET ERROR =        2.1503D+07           BUDGET ERROR =          56289.96

  ***WARNING, CUMULATIVE VOLUME OFF > 5%
  ***WARNING, FLUX RATES OFF > 3%

  PERCENT DISCREPANCY =             72.71    PERCENT DISCREPANCY =              8.84



1
 SUMMARY VOLUMETRIC BUDGET FOR GSFLOW 
 DATE: 11 04 1980              CUMULATIVE TIME STEP:      35
 MODFLOW STRESS PERIOD      1     CURRENT TIME STEP:      35     ITERATIONS:       5

 -----------------------------------------------------------------------------------

   CUMULATIVE VOLUMES               L**3   RATES FOR THIS TIME STEP           L**3/T
   ------------------                      ------------------------

                                     IN                                         IN
                                     --                                         --
        PRECIPITATION =        5.0408D+07          PRECIPITATION =                  
           STREAMFLOW =                               STREAMFLOW =                  
     GW BOUNDARY FLOW =                         GW BOUNDARY FLOW =                  


                                    OUT                                        OUT
                                    ---                                        ---
   EVAPOTRANSPIRATION =        1.8112D+07     EVAPOTRANSPIRATION =        1460208.76
           STREAMFLOW =        7932127.86             STREAMFLOW =         350029.38
     GW BOUNDARY FLOW =                         GW BOUNDARY FLOW =                  

   INFLOWS - OUTFLOWS =        2.4365D+07     INFLOWS - OUTFLOWS =       -1810238.13
             --------                                   --------

 TOTAL STORAGE CHANGE =       -2389382.57         STORAGE CHANGE =       -2820957.98
       --------------                             --------------
         LAND SURFACE =         253222.42           LAND SURFACE =         -53384.75
            SOIL ZONE =        1.0873D+07              SOIL ZONE =       -1467744.44
     UNSATURATED ZONE =       -2273998.80       UNSATURATED ZONE =         -37768.54
       SATURATED ZONE =       -5058765.12         SATURATED ZONE =        -262701.06
                LAKES =       -6182549.39                  LAKES =        -999359.19

 OVERALL BUDGET ERROR =        2.6754D+07           BUDGET ERROR =        1010719.84

  ***WARNING, CUMULATIVE VOLUME OFF > 5%
  ***CAUTION, FLUX RATES OFF > 10%

  PERCENT DISCREPANCY =             67.87    PERCENT DISCREPANCY =             43.65



1
 SUMMARY VOLUMETRIC BUDGET FOR GSFLOW 
 DATE: 11 11 1980              CUMULATIVE TIME STEP:      42
 MODFLOW STRESS PERIOD      1     CURRENT TIME STEP:      42     ITERATIONS:       3

 -----------------------------------------------------------------------------------

   CUMULATIVE VOLUMES               L**3   RATES FOR THIS TIME STEP           L**3/T
   ------------------                      ------------------------

                                     IN                                         IN
                                     --                                         --
        PRECIPITATION =        7.9485D+07          PRECIPITATION =        3230734.65
           STREAMFLOW =                               STREAMFLOW =                  
     GW BOUNDARY FLOW =                         GW BOUNDARY FLOW =                  


                                    OUT                                        OUT
                                    ---                                        ---
   EVAPOTRANSPIRATION =        2.7180D+07     EVAPOTRANSPIRATION =         779896.04
           STREAMFLOW =        9809898.78             STREAMFLOW =         250107.38
     GW BOUNDARY FLOW =                         GW BOUNDARY FLOW =                  

   INFLOWS - OUTFLOWS =        4.2495D+07     INFLOWS - OUTFLOWS =        2200731.24
             --------                                   --------

 TOTAL STORAGE CHANGE =        7793930.24         STORAGE CHANGE =        1226644.38
       --------------                             --------------
         LAND SURFACE =        3621835.70           LAND SURFACE =         -63920.05
            SOIL ZONE =        1.6538D+07              SOIL ZONE =         762206.74
     UNSATURATED ZONE =       -2252167.17       UNSATURATED ZONE =          55029.83
       SATURATED ZONE =       -5996011.34         SATURATED ZONE =         -55449.89
                LAKES =       -4117774.14                  LAKES =         528777.75

 OVERALL BUDGET ERROR =        3.4701D+07           BUDGET ERROR =         974086.86

  ***WARNING, CUMULATIVE VOLUME OFF > 5%
  ***CAUTION, FLUX RATES OFF > 10%

  PERCENT DISCREPANCY =             55.85    PERCENT DISCREPANCY =             35.50



1
 SUMMARY VOLUMETRIC BUDGET FOR GSFLOW 
 DATE: 11 18 1980              CUMULATIVE TIME STEP:      49
 MODFLOW STRESS PERIOD      1     CURRENT TIME STEP:      49     ITERATIONS:       3

 -----------------------------------------------------------------------------------

   CUMULATIVE VOLUMES               L**3   RATES FOR THIS TIME STEP           L**3/T
   ------------------                      ------------------------

                                     IN                                         IN
                                     --                                         --
        PRECIPITATION =        8.5946D+07          PRECIPITATION =                  
           STREAMFLOW =                               STREAMFLOW =                  
     GW BOUNDARY FLOW =                         GW BOUNDARY FLOW =                  


                                    OUT                                        OUT
                                    ---                                        ---
   EVAPOTRANSPIRATION =        3.0596D+07     EVAPOTRANSPIRATION =         894979.91
           STREAMFLOW =        1.1638D+07             STREAMFLOW =         312768.59
     GW BOUNDARY FLOW =                         GW BOUNDARY FLOW =                  

   INFLOWS - OUTFLOWS =        4.3712D+07     INFLOWS - OUTFLOWS =       -1207748.51
             --------                                   --------

 TOTAL STORAGE CHANGE =        6562337.67         STORAGE CHANGE =       -1725884.48
       --------------                             --------------
         LAND SURFACE =        4247190.46           LAND SURFACE =        -429064.21
            SOIL ZONE =        1.6079D+07              SOIL ZONE =        -611547.61
     UNSATURATED ZONE =       -2148689.18       UNSATURATED ZONE =          22492.73
       SATURATED ZONE =       -7212802.15         SATURATED ZONE =        -169386.39
                LAKES =       -4402576.21                  LAKES =        -538379.00

 OVERALL BUDGET ERROR =        3.7149D+07           BUDGET ERROR =         518135.97

  ***WARNING, CUMULATIVE VOLUME OFF > 5%
  ***CAUTION, FLUX RATES OFF > 10%

  PERCENT DISCREPANCY =             55.14    PERCENT DISCREPANCY =             35.32



1
 SUMMARY VOLUMETRIC BUDGET FOR GSFLOW 
 DATE: 11 25 1980              CUMULATIVE TIME STEP:      56
 MODFLOW STRESS PERIOD      1     CURRENT TIME STEP:      56     ITERATIONS:       3

 -----------------------------------------------------------------------------------

   CUMULATIVE VOLUMES               L**3   RATES FOR THIS TIME STEP           L**3/T
   ------------------                      ------------------------

                                     IN                                         IN
                                     --                                         --
        PRECIPITATION =        8.9177D+07          PRECIPITATION =                  
           STREAMFLOW =                               STREAMFLOW =                  
     GW BOUNDARY FLOW =                         GW BOUNDARY FLOW =                  


                                    OUT                                        OUT
                                    ---                                        ---
   EVAPOTRANSPIRATION =        3.4261D+07     EVAPOTRANSPIRATION =         152960.05
           STREAMFLOW =        1.4055D+07             STREAMFLOW =         437097.06
     GW BOUNDARY FLOW =                         GW BOUNDARY FLOW =                  

   INFLOWS - OUTFLOWS =        4.0861D+07     INFLOWS - OUTFLOWS =        -590057.11
             --------                                   --------

 TOTAL STORAGE CHANGE =         581983.35         STORAGE CHANGE =        -726311.34
       --------------                             --------------
         LAND SURFACE =        4128151.39           LAND SURFACE =         -26936.60
            SOIL ZONE =        1.4196D+07              SOIL ZONE =        -181879.56
     UNSATURATED ZONE =       -2159820.94       UNSATURATED ZONE =         -15671.21
       SATURATED ZONE =       -8434020.12         SATURATED ZONE =        -180330.00
                LAKES =       -7148767.77                  LAKES =        -321493.97

 OVERALL BUDGET ERROR =        4.0279D+07           BUDGET ERROR =         136254.23

  ***WARNING, CUMULATIVE VOLUME OFF > 5%
  ***CAUTION, FLUX RATES OFF > 10%

  PERCENT DISCREPANCY =             58.34    PERCENT DISCREPANCY =             20.70



1
 SUMMARY VOLUMETRIC BUDGET FOR GSFLOW 
 DATE: 12 02 1980              CUMULATIVE TIME STEP:      63
 MODFLOW STRESS PERIOD      1     CURRENT TIME STEP:      63     ITERATIONS:       3

 -----------------------------------------------------------------------------------

   CUMULATIVE VOLUMES               L**3   RATES FOR THIS TIME STEP           L**3/T
   ------------------                      ------------------------

                                     IN                                         IN
                                     --                                         --
        PRECIPITATION =        1.0846D+08          PRECIPITATION =        3198161.89
           STREAMFLOW =                               STREAMFLOW =                  
     GW BOUNDARY FLOW =                         GW BOUNDARY FLOW =                  


                                    OUT                                        OUT
                                    ---                                        ---
   EVAPOTRANSPIRATION =        3.8798D+07     EVAPOTRANSPIRATION =         677919.88
           STREAMFLOW =        1.7318D+07             STREAMFLOW =         437254.56
     GW BOUNDARY FLOW =                         GW BOUNDARY FLOW =                  

   INFLOWS - OUTFLOWS =        5.2348D+07     INFLOWS - OUTFLOWS =        2082987.45
             --------                                   --------

 TOTAL STORAGE CHANGE =        8893414.75         STORAGE CHANGE =        1341178.19
       --------------                             --------------
         LAND SURFACE =        7153033.02           LAND SURFACE =        -909613.46
            SOIL ZONE =        1.8136D+07              SOIL ZONE =        1727180.77
     UNSATURATED ZONE =       -2002652.91       UNSATURATED ZONE =          55333.89
       SATURATED ZONE =       -9174466.31         SATURATED ZONE =         -57797.06
                LAKES =       -5218026.48                  LAKES =         526074.06

 OVERALL BUDGET ERROR =        4.3455D+07           BUDGET ERROR =         741809.26

  ***WARNING, CUMULATIVE VOLUME OFF > 5%
  ***CAUTION, FLUX RATES OFF > 10%

  PERCENT DISCREPANCY =             50.10    PERCENT DISCREPANCY =             26.24



1
 SUMMARY VOLUMETRIC BUDGET FOR GSFLOW 
 DATE: 12 09 1980              CUMULATIVE TIME STEP:      70
 MODFLOW STRESS PERIOD      1     CURRENT TIME STEP:      70     ITERATIONS:      14

 -----------------------------------------------------------------------------------

   CUMULATIVE VOLUMES               L**3   RATES FOR THIS TIME STEP           L**3/T
   ------------------                      ------------------------

                                     IN                                         IN
                                     --                                         --
        PRECIPITATION =        1.7882D+08          PRECIPITATION =                  
           STREAMFLOW =                               STREAMFLOW =                  
     GW BOUNDARY FLOW =                         GW BOUNDARY FLOW =                  


                                    OUT                                        OUT
                                    ---                                        ---
   EVAPOTRANSPIRATION =        4.0308D+07     EVAPOTRANSPIRATION =         242215.44
           STREAMFLOW =        2.0283D+07             STREAMFLOW =         420980.03
     GW BOUNDARY FLOW =                         GW BOUNDARY FLOW =                  

   INFLOWS - OUTFLOWS =        1.1823D+08     INFLOWS - OUTFLOWS =        -663195.47
             --------                                   --------

 TOTAL STORAGE CHANGE =        7.3442D+07         STORAGE CHANGE =        -820634.85
       --------------                             --------------
         LAND SURFACE =        5.1471D+07           LAND SURFACE =        -232729.71
            SOIL ZONE =        2.0856D+07              SOIL ZONE =        -154164.86
     UNSATURATED ZONE =       -1510194.58       UNSATURATED ZONE =          36557.79
       SATURATED ZONE =       -1.0134D+07         SATURATED ZONE =        -196924.66
                LAKES =        1.2759D+07                  LAKES =        -273373.41

 OVERALL BUDGET ERROR =        4.4791D+07           BUDGET ERROR =         157439.37

  ***WARNING, CUMULATIVE VOLUME OFF > 5%
  ***CAUTION, FLUX RATES OFF > 10%

  PERCENT DISCREPANCY =             28.63    PERCENT DISCREPANCY =             21.22



1
 SUMMARY VOLUMETRIC BUDGET FOR GSFLOW 
 DATE: 12 16 1980              CUMULATIVE TIME STEP:      77
 MODFLOW STRESS PERIOD      1     CURRENT TIME STEP:      77     ITERATIONS:       2

 -----------------------------------------------------------------------------------

   CUMULATIVE VOLUMES               L**3   RATES FOR THIS TIME STEP           L**3/T
   ------------------                      ------------------------

                                     IN                                         IN
                                     --                                         --
        PRECIPITATION =        1.7882D+08          PRECIPITATION =                  
           STREAMFLOW =                               STREAMFLOW =                  
     GW BOUNDARY FLOW =                         GW BOUNDARY FLOW =                  


                                    OUT                                        OUT
                                    ---                                        ---
   EVAPOTRANSPIRATION =        4.4321D+07     EVAPOTRANSPIRATION =         886455.42
           STREAMFLOW =        2.3263D+07             STREAMFLOW =         430699.19
     GW BOUNDARY FLOW =                         GW BOUNDARY FLOW =                  

   INFLOWS - OUTFLOWS =        1.1124D+08     INFLOWS - OUTFLOWS =       -1317154.61
             --------                                   --------

 TOTAL STORAGE CHANGE =        6.3801D+07         STORAGE CHANGE =       -1939253.13
       --------------                             --------------
         LAND SURFACE =        4.7223D+07           LAND SURFACE =       -1206516.26
            SOIL ZONE =        2.0409D+07              SOIL ZONE =         196090.26
     UNSATURATED ZONE =       -1415248.54       UNSATURATED ZONE =           4045.54
       SATURATED ZONE =       -1.1472D+07         SATURATED ZONE =        -177058.28
                LAKES =        9056344.65                  LAKES =        -755814.38

 OVERALL BUDGET ERROR =        4.7437D+07           BUDGET ERROR =         622098.51

  ***WARNING, CUMULATIVE VOLUME OFF > 5%
  ***CAUTION, FLUX RATES OFF > 10%

  PERCENT DISCREPANCY =             30.58    PERCENT DISCREPANCY =             38.21



1
 SUMMARY VOLUMETRIC BUDGET FOR GSFLOW 
 DATE: 12 23 1980              CUMULATIVE TIME STEP:      84
 MODFLOW STRESS PERIOD      1     CURRENT TIME STEP:      84     ITERATIONS:       3

 -----------------------------------------------------------------------------------

   CUMULATIVE VOLUMES               L**3   RATES FOR THIS TIME STEP           L**3/T
   ------------------                      ------------------------

                                     IN                                         IN
                                     --                                         --
        PRECIPITATION =        1.8522D+08          PRECIPITATION =        3198161.89
           STREAMFLOW =                               STREAMFLOW =                  
     GW BOUNDARY FLOW =                         GW BOUNDARY FLOW =                  


                                    OUT                                        OUT
                                    ---                                        ---
   EVAPOTRANSPIRATION =        4.9394D+07     EVAPOTRANSPIRATION =         637958.23
           STREAMFLOW =        2.6316D+07             STREAMFLOW =         443589.09
     GW BOUNDARY FLOW =                         GW BOUNDARY FLOW =                  

   INFLOWS - OUTFLOWS =        1.0951D+08     INFLOWS - OUTFLOWS =        2116614.58
             --------                                   --------

 TOTAL STORAGE CHANGE =        5.8522D+07         STORAGE CHANGE =        1533245.41
       --------------                             --------------
         LAND SURFACE =        4.2129D+07           LAND SURFACE =        -245970.29
            SOIL ZONE =        2.2991D+07              SOIL ZONE =        1215614.50
     UNSATURATED ZONE =       -1141749.60       UNSATURATED ZONE =         130400.99
       SATURATED ZONE =       -1.2365D+07         SATURATED ZONE =         -80004.91
                LAKES =        6909537.19                  LAKES =         513205.12

 OVERALL BUDGET ERROR =        5.0988D+07           BUDGET ERROR =         583369.16

  ***WARNING, CUMULATIVE VOLUME OFF > 5%
  ***CAUTION, FLUX RATES OFF > 10%

  PERCENT DISCREPANCY =             31.92    PERCENT DISCREPANCY =             20.07



1
 SUMMARY VOLUMETRIC BUDGET FOR GSFLOW 
 DATE: 12 30 1980              CUMULATIVE TIME STEP:      91
 MODFLOW STRESS PERIOD      1     CURRENT TIME STEP:      91     ITERATIONS:      15

 -----------------------------------------------------------------------------------

   CUMULATIVE VOLUMES               L**3   RATES FOR THIS TIME STEP           L**3/T
   ------------------                      ------------------------

                                     IN                                         IN
                                     --                                         --
        PRECIPITATION =        1.8522D+08          PRECIPITATION =                  
           STREAMFLOW =                               STREAMFLOW =                  
     GW BOUNDARY FLOW =                         GW BOUNDARY FLOW =                  


                                    OUT                                        OUT
                                    ---                                        ---
   EVAPOTRANSPIRATION =        5.5933D+07     EVAPOTRANSPIRATION =         811483.89
           STREAMFLOW =        2.9400D+07             STREAMFLOW =         445285.34
     GW BOUNDARY FLOW =                         GW BOUNDARY FLOW =                  

   INFLOWS - OUTFLOWS =        9.9887D+07     INFLOWS - OUTFLOWS =       -1256769.23
             --------                                   --------

 TOTAL STORAGE CHANGE =        4.5088D+07         STORAGE CHANGE =       -1711182.96
       --------------                             --------------
         LAND SURFACE =        3.5990D+07           LAND SURFACE =        -559081.80
            SOIL ZONE =        2.1075D+07              SOIL ZONE =        -390914.94
     UNSATURATED ZONE =        -964619.49       UNSATURATED ZONE =           7027.46
       SATURATED ZONE =       -1.3399D+07         SATURATED ZONE =        -159685.05
                LAKES =        2387457.15                  LAKES =        -608528.62

 OVERALL BUDGET ERROR =        5.4799D+07           BUDGET ERROR =         454413.73

  ***WARNING, CUMULATIVE VOLUME OFF > 5%
  ***CAUTION, FLUX RATES OFF > 10%

  PERCENT DISCREPANCY =             34.72    PERCENT DISCREPANCY =             30.62



1
 SUMMARY VOLUMETRIC BUDGET FOR GSFLOW 
 DATE: 01 06 1981              CUMULATIVE TIME STEP:      98
 MODFLOW STRESS PERIOD      1     CURRENT TIME STEP:      98     ITERATIONS:       9

 -----------------------------------------------------------------------------------

   CUMULATIVE VOLUMES               L**3   RATES FOR THIS TIME STEP           L**3/T
   ------------------                      ------------------------

                                     IN                                         IN
                                     --                                         --
        PRECIPITATION =        2.0923D+08          PRECIPITATION =                  
           STREAMFLOW =                               STREAMFLOW =                  
     GW BOUNDARY FLOW =                         GW BOUNDARY FLOW =                  


                                    OUT                                        OUT
                                    ---                                        ---
   EVAPOTRANSPIRATION =        6.0945D+07     EVAPOTRANSPIRATION =         701609.74
           STREAMFLOW =        3.2520D+07             STREAMFLOW =         445584.47
     GW BOUNDARY FLOW =                         GW BOUNDARY FLOW =                  

   INFLOWS - OUTFLOWS =        1.1576D+08     INFLOWS - OUTFLOWS =       -1147194.21
             --------                                   --------

 TOTAL STORAGE CHANGE =        5.7815D+07         STORAGE CHANGE =       -1613026.02
       --------------                             --------------
         LAND SURFACE =        4.1576D+07           LAND SURFACE =        -362260.72
            SOIL ZONE =        2.3930D+07              SOIL ZONE =        -580367.49
     UNSATURATED ZONE =        -462407.26       UNSATURATED ZONE =          76297.22
       SATURATED ZONE =       -1.4047D+07         SATURATED ZONE =        -196675.28
                LAKES =        6817311.06                  LAKES =        -550019.75

 OVERALL BUDGET ERROR =        5.7946D+07           BUDGET ERROR =         465831.81

  ***WARNING, CUMULATIVE VOLUME OFF > 5%
  ***CAUTION, FLUX RATES OFF > 10%

  PERCENT DISCREPANCY =             32.15    PERCENT DISCREPANCY =             33.75



1
 SUMMARY VOLUMETRIC BUDGET FOR GSFLOW 
 DATE: 01 13 1981              CUMULATIVE TIME STEP:     105
 MODFLOW STRESS PERIOD      1     CURRENT TIME STEP:     105     ITERATIONS:       4

 -----------------------------------------------------------------------------------

   CUMULATIVE VOLUMES               L**3   RATES FOR THIS TIME STEP           L**3/T
   ------------------                      ------------------------

                                     IN                                         IN
                                     --                                         --
        PRECIPITATION =        2.1223D+08          PRECIPITATION =                  
           STREAMFLOW =                               STREAMFLOW =                  
     GW BOUNDARY FLOW =                         GW BOUNDARY FLOW =                  


                                    OUT                                        OUT
                                    ---                                        ---
   EVAPOTRANSPIRATION =        6.6385D+07     EVAPOTRANSPIRATION =         930072.24
           STREAMFLOW =        3.5651D+07             STREAMFLOW =         457548.53
     GW BOUNDARY FLOW =                         GW BOUNDARY FLOW =                  

   INFLOWS - OUTFLOWS =        1.1019D+08     INFLOWS - OUTFLOWS =       -1387620.77
             --------                                   --------

 TOTAL STORAGE CHANGE =        4.9045D+07         STORAGE CHANGE =       -1916244.81
       --------------                             --------------
         LAND SURFACE =        4.0089D+07           LAND SURFACE =        -485861.71
            SOIL ZONE =        2.1253D+07              SOIL ZONE =        -521186.68
     UNSATURATED ZONE =        -321310.73       UNSATURATED ZONE =          -3871.35
       SATURATED ZONE =       -1.5269D+07         SATURATED ZONE =        -174409.58
                LAKES =        3293071.28                  LAKES =        -730915.50

 OVERALL BUDGET ERROR =        6.1146D+07           BUDGET ERROR =         528624.04

  ***WARNING, CUMULATIVE VOLUME OFF > 5%
  ***CAUTION, FLUX RATES OFF > 10%

  PERCENT DISCREPANCY =             33.66    PERCENT DISCREPANCY =             32.00



1
 SUMMARY VOLUMETRIC BUDGET FOR GSFLOW 
 DATE: 01 20 1981              CUMULATIVE TIME STEP:     112
 MODFLOW STRESS PERIOD      1     CURRENT TIME STEP:     112     ITERATIONS:       6

 -----------------------------------------------------------------------------------

   CUMULATIVE VOLUMES               L**3   RATES FOR THIS TIME STEP           L**3/T
   ------------------                      ------------------------

                                     IN                                         IN
                                     --                                         --
        PRECIPITATION =        2.2423D+08          PRECIPITATION =        6001392.59
           STREAMFLOW =                               STREAMFLOW =                  
     GW BOUNDARY FLOW =                         GW BOUNDARY FLOW =                  


                                    OUT                                        OUT
                                    ---                                        ---
   EVAPOTRANSPIRATION =        7.3741D+07     EVAPOTRANSPIRATION =        1178171.16
           STREAMFLOW =        3.9242D+07             STREAMFLOW =         485900.78
     GW BOUNDARY FLOW =                         GW BOUNDARY FLOW =                  

   INFLOWS - OUTFLOWS =        1.1125D+08     INFLOWS - OUTFLOWS =        4337320.64
             --------                                   --------

 TOTAL STORAGE CHANGE =        4.5810D+07         STORAGE CHANGE =        3485688.31
       --------------                             --------------
         LAND SURFACE =        3.7521D+07           LAND SURFACE =         673026.77
            SOIL ZONE =        2.2538D+07              SOIL ZONE =        1303230.10
     UNSATURATED ZONE =         -83693.45       UNSATURATED ZONE =         108957.46
       SATURATED ZONE =       -1.5970D+07         SATURATED ZONE =          30827.98
                LAKES =        1804686.62                  LAKES =        1369646.00

 OVERALL BUDGET ERROR =        6.5436D+07           BUDGET ERROR =         851632.34

  ***WARNING, CUMULATIVE VOLUME OFF > 5%
  ***CAUTION, FLUX RATES OFF > 10%

  PERCENT DISCREPANCY =             34.17    PERCENT DISCREPANCY =             15.27



1
 SUMMARY VOLUMETRIC BUDGET FOR GSFLOW 
 DATE: 01 27 1981              CUMULATIVE TIME STEP:     119
 MODFLOW STRESS PERIOD      1     CURRENT TIME STEP:     119     ITERATIONS:      30

 -----------------------------------------------------------------------------------

   CUMULATIVE VOLUMES               L**3   RATES FOR THIS TIME STEP           L**3/T
   ------------------                      ------------------------

                                     IN                                         IN
                                     --                                         --
        PRECIPITATION =        3.3525D+08          PRECIPITATION =        6.0014D+07
           STREAMFLOW =                               STREAMFLOW =                  
     GW BOUNDARY FLOW =                         GW BOUNDARY FLOW =                  


                                    OUT                                        OUT
                                    ---                                        ---
   EVAPOTRANSPIRATION =        7.9557D+07     EVAPOTRANSPIRATION =         415599.71
           STREAMFLOW =        4.1754D+07             STREAMFLOW =         346036.12
     GW BOUNDARY FLOW =                         GW BOUNDARY FLOW =                  

   INFLOWS - OUTFLOWS =        2.1394D+08     INFLOWS - OUTFLOWS =        5.9252D+07
             --------                                   --------

 TOTAL STORAGE CHANGE =        1.4437D+08         STORAGE CHANGE =        5.8652D+07
       --------------                             --------------
         LAND SURFACE =        1.0747D+08           LAND SURFACE =        4.1072D+07
            SOIL ZONE =        2.4045D+07              SOIL ZONE =        1572153.00
     UNSATURATED ZONE =         477302.98       UNSATURATED ZONE =         104684.12
       SATURATED ZONE =       -1.6565D+07         SATURATED ZONE =          32854.59
                LAKES =        2.8951D+07                  LAKES =        1.5870D+07

 OVERALL BUDGET ERROR =        6.9569D+07           BUDGET ERROR =         600088.99

  ***WARNING, CUMULATIVE VOLUME OFF > 5%

  PERCENT DISCREPANCY =             23.15    PERCENT DISCREPANCY =              1.00



1
 SUMMARY VOLUMETRIC BUDGET FOR GSFLOW 
 DATE: 02 03 1981              CUMULATIVE TIME STEP:     126
 MODFLOW STRESS PERIOD      1     CURRENT TIME STEP:     126     ITERATIONS:      26

 -----------------------------------------------------------------------------------

   CUMULATIVE VOLUMES               L**3   RATES FOR THIS TIME STEP           L**3/T
   ------------------                      ------------------------

                                     IN                                         IN
                                     --                                         --
        PRECIPITATION =        4.0137D+08          PRECIPITATION =                  
           STREAMFLOW =                               STREAMFLOW =                  
     GW BOUNDARY FLOW =                         GW BOUNDARY FLOW =                  


                                    OUT                                        OUT
                                    ---                                        ---
   EVAPOTRANSPIRATION =        8.1743D+07     EVAPOTRANSPIRATION =         540898.68
           STREAMFLOW =        4.4234D+07             STREAMFLOW =         354942.25
     GW BOUNDARY FLOW =                         GW BOUNDARY FLOW =                  

   INFLOWS - OUTFLOWS =        2.7539D+08     INFLOWS - OUTFLOWS =        -895840.93
             --------                                   --------

 TOTAL STORAGE CHANGE =        2.0379D+08         STORAGE CHANGE =       -1280626.79
       --------------                             --------------
         LAND SURFACE =        1.5382D+08           LAND SURFACE =        -497697.44
            SOIL ZONE =        2.2891D+07              SOIL ZONE =        -155002.41
     UNSATURATED ZONE =         848926.36       UNSATURATED ZONE =          10247.88
       SATURATED ZONE =       -1.7805D+07         SATURATED ZONE =        -169369.59
                LAKES =        4.4039D+07                  LAKES =        -468805.22

 OVERALL BUDGET ERROR =        7.1596D+07           BUDGET ERROR =         384785.86

  ***WARNING, CUMULATIVE VOLUME OFF > 5%
  ***CAUTION, FLUX RATES OFF > 10%

  PERCENT DISCREPANCY =             19.58    PERCENT DISCREPANCY =             35.36



1
 SUMMARY VOLUMETRIC BUDGET FOR GSFLOW 
 DATE: 02 10 1981              CUMULATIVE TIME STEP:     133
 MODFLOW STRESS PERIOD      1     CURRENT TIME STEP:     133     ITERATIONS:       3

 -----------------------------------------------------------------------------------

   CUMULATIVE VOLUMES               L**3   RATES FOR THIS TIME STEP           L**3/T
   ------------------                      ------------------------

                                     IN                                         IN
                                     --                                         --
        PRECIPITATION =        4.1375D+08          PRECIPITATION =        3095932.43
           STREAMFLOW =                               STREAMFLOW =                  
     GW BOUNDARY FLOW =                         GW BOUNDARY FLOW =                  


                                    OUT                                        OUT
                                    ---                                        ---
   EVAPOTRANSPIRATION =        8.4989D+07     EVAPOTRANSPIRATION =         341551.35
           STREAMFLOW =        4.6629D+07             STREAMFLOW =         340354.19
     GW BOUNDARY FLOW =                         GW BOUNDARY FLOW =                  

   INFLOWS - OUTFLOWS =        2.8213D+08     INFLOWS - OUTFLOWS =        2414026.89
             --------                                   --------

 TOTAL STORAGE CHANGE =        2.0808D+08         STORAGE CHANGE =        2127110.68
       --------------                             --------------
         LAND SURFACE =        1.5941D+08           LAND SURFACE =        1678271.41
            SOIL ZONE =        2.2665D+07              SOIL ZONE =         168729.63
     UNSATURATED ZONE =         808384.46       UNSATURATED ZONE =          -4727.45
       SATURATED ZONE =       -1.8926D+07         SATURATED ZONE =        -154385.91
                LAKES =        4.4122D+07                  LAKES =         439223.00

 OVERALL BUDGET ERROR =        7.4050D+07           BUDGET ERROR =         286916.21

  ***WARNING, CUMULATIVE VOLUME OFF > 5%
  ***WARNING, FLUX RATES OFF > 3%

  PERCENT DISCREPANCY =             19.66    PERCENT DISCREPANCY =              9.72



1
 SUMMARY VOLUMETRIC BUDGET FOR GSFLOW 
 DATE: 02 17 1981              CUMULATIVE TIME STEP:     140
 MODFLOW STRESS PERIOD      1     CURRENT TIME STEP:     140     ITERATIONS:       7

 -----------------------------------------------------------------------------------

   CUMULATIVE VOLUMES               L**3   RATES FOR THIS TIME STEP           L**3/T
   ------------------                      ------------------------

                                     IN                                         IN
                                     --                                         --
        PRECIPITATION =        4.6328D+08          PRECIPITATION =                  
           STREAMFLOW =                               STREAMFLOW =                  
     GW BOUNDARY FLOW =                         GW BOUNDARY FLOW =                  


                                    OUT                                        OUT
                                    ---                                        ---
   EVAPOTRANSPIRATION =        9.1808D+07     EVAPOTRANSPIRATION =        1598649.58
           STREAMFLOW =        4.8982D+07             STREAMFLOW =         285975.97
     GW BOUNDARY FLOW =                         GW BOUNDARY FLOW =                  

   INFLOWS - OUTFLOWS =        3.2249D+08     INFLOWS - OUTFLOWS =       -1884625.55
             --------                                   --------

 TOTAL STORAGE CHANGE =        2.4317D+08         STORAGE CHANGE =       -2967209.70
       --------------                             --------------
         LAND SURFACE =        1.7506D+08           LAND SURFACE =       -2254149.30
            SOIL ZONE =        2.8699D+07              SOIL ZONE =        -106085.73
     UNSATURATED ZONE =        1488097.39       UNSATURATED ZONE =         117632.94
       SATURATED ZONE =       -1.9128D+07         SATURATED ZONE =        -124926.05
                LAKES =        5.7051D+07                  LAKES =        -599681.56

 OVERALL BUDGET ERROR =        7.9326D+07           BUDGET ERROR =        1082584.15

  ***WARNING, CUMULATIVE VOLUME OFF > 5%
  ***CAUTION, FLUX RATES OFF > 10%

  PERCENT DISCREPANCY =             18.73    PERCENT DISCREPANCY =             44.63



1
 SUMMARY VOLUMETRIC BUDGET FOR GSFLOW 
 DATE: 02 24 1981              CUMULATIVE TIME STEP:     147
 MODFLOW STRESS PERIOD      1     CURRENT TIME STEP:     147     ITERATIONS:       5

 -----------------------------------------------------------------------------------

   CUMULATIVE VOLUMES               L**3   RATES FOR THIS TIME STEP           L**3/T
   ------------------                      ------------------------

                                     IN                                         IN
                                     --                                         --
        PRECIPITATION =        4.8805D+08          PRECIPITATION =        1.8576D+07
           STREAMFLOW =                               STREAMFLOW =                  
     GW BOUNDARY FLOW =                         GW BOUNDARY FLOW =                  


                                    OUT                                        OUT
                                    ---                                        ---
   EVAPOTRANSPIRATION =        1.0044D+08     EVAPOTRANSPIRATION =         847962.31
           STREAMFLOW =        5.0070D+07             STREAMFLOW =         144037.27
     GW BOUNDARY FLOW =                         GW BOUNDARY FLOW =                  

   INFLOWS - OUTFLOWS =        3.3754D+08     INFLOWS - OUTFLOWS =        1.7584D+07
             --------                                   --------

 TOTAL STORAGE CHANGE =        2.5277D+08         STORAGE CHANGE =        1.7018D+07
       --------------                             --------------
         LAND SURFACE =        1.7597D+08           LAND SURFACE =        1.1072D+07
            SOIL ZONE =        3.0429D+07              SOIL ZONE =         376657.21
     UNSATURATED ZONE =        -140727.75       UNSATURATED ZONE =         304724.15
       SATURATED ZONE =       -1.7525D+07         SATURATED ZONE =          26012.84
                LAKES =        6.4035D+07                  LAKES =        5238059.50

 OVERALL BUDGET ERROR =        8.4779D+07           BUDGET ERROR =         566055.27

  ***WARNING, CUMULATIVE VOLUME OFF > 5%
  ***WARNING, FLUX RATES OFF > 3%

  PERCENT DISCREPANCY =             19.02    PERCENT DISCREPANCY =              3.09



1
 SUMMARY VOLUMETRIC BUDGET FOR GSFLOW 
 DATE: 03 03 1981              CUMULATIVE TIME STEP:     154
 MODFLOW STRESS PERIOD      1     CURRENT TIME STEP:     154     ITERATIONS:       3

 -----------------------------------------------------------------------------------

   CUMULATIVE VOLUMES               L**3   RATES FOR THIS TIME STEP           L**3/T
   ------------------                      ------------------------

                                     IN                                         IN
                                     --                                         --
        PRECIPITATION =        5.0056D+08          PRECIPITATION =                  
           STREAMFLOW =                               STREAMFLOW =                  
     GW BOUNDARY FLOW =                         GW BOUNDARY FLOW =                  


                                    OUT                                        OUT
                                    ---                                        ---
   EVAPOTRANSPIRATION =        1.0566D+08     EVAPOTRANSPIRATION =        1359078.93
           STREAMFLOW =        5.1121D+07             STREAMFLOW =         161766.55
     GW BOUNDARY FLOW =                         GW BOUNDARY FLOW =                  

   INFLOWS - OUTFLOWS =        3.4378D+08     INFLOWS - OUTFLOWS =       -1520845.48
             --------                                   --------

 TOTAL STORAGE CHANGE =        2.5511D+08         STORAGE CHANGE =       -2433681.40
       --------------                             --------------
         LAND SURFACE =        1.7885D+08           LAND SURFACE =       -1096145.58
            SOIL ZONE =        2.8175D+07              SOIL ZONE =        -410675.00
     UNSATURATED ZONE =         724172.40       UNSATURATED ZONE =          13372.94
       SATURATED ZONE =       -1.8767D+07         SATURATED ZONE =        -193069.45
                LAKES =        6.6128D+07                  LAKES =        -747164.31

 OVERALL BUDGET ERROR =        8.8670D+07           BUDGET ERROR =         912835.92

  ***WARNING, CUMULATIVE VOLUME OFF > 5%
  ***CAUTION, FLUX RATES OFF > 10%

  PERCENT DISCREPANCY =             19.44    PERCENT DISCREPANCY =             46.17



1
 SUMMARY VOLUMETRIC BUDGET FOR GSFLOW 
 DATE: 03 10 1981              CUMULATIVE TIME STEP:     161
 MODFLOW STRESS PERIOD      1     CURRENT TIME STEP:     161     ITERATIONS:      34

 -----------------------------------------------------------------------------------

   CUMULATIVE VOLUMES               L**3   RATES FOR THIS TIME STEP           L**3/T
   ------------------                      ------------------------

                                     IN                                         IN
                                     --                                         --
        PRECIPITATION =        5.0378D+08          PRECIPITATION =        3221591.34
           STREAMFLOW =                               STREAMFLOW =                  
     GW BOUNDARY FLOW =                         GW BOUNDARY FLOW =                  


                                    OUT                                        OUT
                                    ---                                        ---
   EVAPOTRANSPIRATION =        1.1646D+08     EVAPOTRANSPIRATION =        1316877.58
           STREAMFLOW =        5.2271D+07             STREAMFLOW =         166367.72
     GW BOUNDARY FLOW =                         GW BOUNDARY FLOW =                  

   INFLOWS - OUTFLOWS =        3.3505D+08     INFLOWS - OUTFLOWS =        1738346.04
             --------                                   --------

 TOTAL STORAGE CHANGE =        2.3927D+08         STORAGE CHANGE =        1030355.71
       --------------                             --------------
         LAND SURFACE =        1.6676D+08           LAND SURFACE =       -1607197.08
            SOIL ZONE =        2.8337D+07              SOIL ZONE =        1145330.28
     UNSATURATED ZONE =         581680.41       UNSATURATED ZONE =          80027.68
       SATURATED ZONE =       -1.9367D+07         SATURATED ZONE =         102008.97
                LAKES =        6.2966D+07                  LAKES =        1310185.88

 OVERALL BUDGET ERROR =        9.5780D+07           BUDGET ERROR =         707990.33

  ***WARNING, CUMULATIVE VOLUME OFF > 5%
  ***CAUTION, FLUX RATES OFF > 10%

  PERCENT DISCREPANCY =             21.01    PERCENT DISCREPANCY =             24.69



1
 SUMMARY VOLUMETRIC BUDGET FOR GSFLOW 
 DATE: 03 17 1981              CUMULATIVE TIME STEP:     168
 MODFLOW STRESS PERIOD      1     CURRENT TIME STEP:     168     ITERATIONS:      32

 -----------------------------------------------------------------------------------

   CUMULATIVE VOLUMES               L**3   RATES FOR THIS TIME STEP           L**3/T
   ------------------                      ------------------------

                                     IN                                         IN
                                     --                                         --
        PRECIPITATION =        5.1345D+08          PRECIPITATION =        3221591.34
           STREAMFLOW =                               STREAMFLOW =                  
     GW BOUNDARY FLOW =                         GW BOUNDARY FLOW =                  


                                    OUT                                        OUT
                                    ---                                        ---
   EVAPOTRANSPIRATION =        1.2552D+08     EVAPOTRANSPIRATION =         673617.66
           STREAMFLOW =        5.3472D+07             STREAMFLOW =         174883.59
     GW BOUNDARY FLOW =                         GW BOUNDARY FLOW =                  

   INFLOWS - OUTFLOWS =        3.3446D+08     INFLOWS - OUTFLOWS =        2373090.08
             --------                                   --------

 TOTAL STORAGE CHANGE =        2.3233D+08         STORAGE CHANGE =        1927951.63
       --------------                             --------------
         LAND SURFACE =        1.6298D+08           LAND SURFACE =        1567731.45
            SOIL ZONE =        2.7093D+07              SOIL ZONE =         -35938.15
     UNSATURATED ZONE =         716580.86       UNSATURATED ZONE =        -118019.30
       SATURATED ZONE =       -2.0152D+07         SATURATED ZONE =         -12161.75
                LAKES =        6.1694D+07                  LAKES =         526339.38

 OVERALL BUDGET ERROR =        1.0213D+08           BUDGET ERROR =         445138.46

  ***WARNING, CUMULATIVE VOLUME OFF > 5%
  ***CAUTION, FLUX RATES OFF > 10%

  PERCENT DISCREPANCY =             22.09    PERCENT DISCREPANCY =             14.84



1
 SUMMARY VOLUMETRIC BUDGET FOR GSFLOW 
 DATE: 03 24 1981              CUMULATIVE TIME STEP:     175
 MODFLOW STRESS PERIOD      1     CURRENT TIME STEP:     175     ITERATIONS:      38

 -----------------------------------------------------------------------------------

   CUMULATIVE VOLUMES               L**3   RATES FOR THIS TIME STEP           L**3/T
   ------------------                      ------------------------

                                     IN                                         IN
                                     --                                         --
        PRECIPITATION =        5.7144D+08          PRECIPITATION =        6443182.67
           STREAMFLOW =                               STREAMFLOW =                  
     GW BOUNDARY FLOW =                         GW BOUNDARY FLOW =                  


                                    OUT                                        OUT
                                    ---                                        ---
   EVAPOTRANSPIRATION =        1.3388D+08     EVAPOTRANSPIRATION =        1098862.35
           STREAMFLOW =        5.4625D+07             STREAMFLOW =         169879.52
     GW BOUNDARY FLOW =                         GW BOUNDARY FLOW =                  

   INFLOWS - OUTFLOWS =        3.8293D+08     INFLOWS - OUTFLOWS =        5174440.80
             --------                                   --------

 TOTAL STORAGE CHANGE =        2.7410D+08         STORAGE CHANGE =        4444224.72
       --------------                             --------------
         LAND SURFACE =        1.9121D+08           LAND SURFACE =        1648492.10
            SOIL ZONE =        2.8768D+07              SOIL ZONE =         662367.84
     UNSATURATED ZONE =        1192124.82       UNSATURATED ZONE =         106881.80
       SATURATED ZONE =       -2.0764D+07         SATURATED ZONE =          61619.73
                LAKES =        7.3691D+07                  LAKES =        1964863.25

 OVERALL BUDGET ERROR =        1.0883D+08           BUDGET ERROR =         730216.08

  ***WARNING, CUMULATIVE VOLUME OFF > 5%
  ***CAUTION, FLUX RATES OFF > 10%

  PERCENT DISCREPANCY =             21.05    PERCENT DISCREPANCY =             12.01



1
 SUMMARY VOLUMETRIC BUDGET FOR GSFLOW 
 DATE: 03 31 1981              CUMULATIVE TIME STEP:     182
 MODFLOW STRESS PERIOD      1     CURRENT TIME STEP:     182     ITERATIONS:      27

 -----------------------------------------------------------------------------------

   CUMULATIVE VOLUMES               L**3   RATES FOR THIS TIME STEP           L**3/T
   ------------------                      ------------------------

                                     IN                                         IN
                                     --                                         --
        PRECIPITATION =        6.3587D+08          PRECIPITATION =        6443182.67
           STREAMFLOW =                               STREAMFLOW =                  
     GW BOUNDARY FLOW =                         GW BOUNDARY FLOW =                  


                                    OUT                                        OUT
                                    ---                                        ---
   EVAPOTRANSPIRATION =        1.4272D+08     EVAPOTRANSPIRATION =         746974.94
           STREAMFLOW =        5.5824D+07             STREAMFLOW =         155306.05
     GW BOUNDARY FLOW =                         GW BOUNDARY FLOW =                  

   INFLOWS - OUTFLOWS =        4.3733D+08     INFLOWS - OUTFLOWS =        5540901.69
             --------                                   --------

 TOTAL STORAGE CHANGE =        3.2177D+08         STORAGE CHANGE =        5044809.13
       --------------                             --------------
         LAND SURFACE =        2.1723D+08           LAND SURFACE =        2850911.63
            SOIL ZONE =        2.9681D+07              SOIL ZONE =         390983.80
     UNSATURATED ZONE =       -2446238.49       UNSATURATED ZONE =         126916.20
       SATURATED ZONE =       -1.7430D+07         SATURATED ZONE =         -69907.62
                LAKES =        9.4734D+07                  LAKES =        1745905.12

 OVERALL BUDGET ERROR =        1.1556D+08           BUDGET ERROR =         496092.56

  ***WARNING, CUMULATIVE VOLUME OFF > 5%
  ***WARNING, FLUX RATES OFF > 3%

  PERCENT DISCREPANCY =             19.99    PERCENT DISCREPANCY =              8.01



1
 SUMMARY VOLUMETRIC BUDGET FOR GSFLOW 
 DATE: 04 07 1981              CUMULATIVE TIME STEP:     189
 MODFLOW STRESS PERIOD      1     CURRENT TIME STEP:     189     ITERATIONS:      19

 -----------------------------------------------------------------------------------

   CUMULATIVE VOLUMES               L**3   RATES FOR THIS TIME STEP           L**3/T
   ------------------                      ------------------------

                                     IN                                         IN
                                     --                                         --
        PRECIPITATION =        6.5328D+08          PRECIPITATION =                  
           STREAMFLOW =                               STREAMFLOW =                  
     GW BOUNDARY FLOW =                         GW BOUNDARY FLOW =                  


                                    OUT                                        OUT
                                    ---                                        ---
   EVAPOTRANSPIRATION =        1.5689D+08     EVAPOTRANSPIRATION =        2506190.23
           STREAMFLOW =        5.6979D+07             STREAMFLOW =         205285.48
     GW BOUNDARY FLOW =                         GW BOUNDARY FLOW =                  

   INFLOWS - OUTFLOWS =        4.3942D+08     INFLOWS - OUTFLOWS =       -2711475.72
             --------                                   --------

 TOTAL STORAGE CHANGE =        3.1356D+08         STORAGE CHANGE =       -4633905.51
       --------------                             --------------
         LAND SURFACE =        1.9636D+08           LAND SURFACE =       -6815335.08
            SOIL ZONE =        2.9804D+07              SOIL ZONE =         -76861.33
     UNSATURATED ZONE =       -1305259.52       UNSATURATED ZONE =         230982.15
       SATURATED ZONE =       -1.6273D+07         SATURATED ZONE =         284322.50
                LAKES =        1.0497D+08                  LAKES =        1742986.25

 OVERALL BUDGET ERROR =        1.2586D+08           BUDGET ERROR =        1922429.79

  ***WARNING, CUMULATIVE VOLUME OFF > 5%
  ***CAUTION, FLUX RATES OFF > 10%

  PERCENT DISCREPANCY =             21.32    PERCENT DISCREPANCY =             52.34



1
 SUMMARY VOLUMETRIC BUDGET FOR GSFLOW 
 DATE: 04 14 1981              CUMULATIVE TIME STEP:     196
 MODFLOW STRESS PERIOD      1     CURRENT TIME STEP:     196     ITERATIONS:      14

 -----------------------------------------------------------------------------------

   CUMULATIVE VOLUMES               L**3   RATES FOR THIS TIME STEP           L**3/T
   ------------------                      ------------------------

                                     IN                                         IN
                                     --                                         --
        PRECIPITATION =        6.5328D+08          PRECIPITATION =                  
           STREAMFLOW =                               STREAMFLOW =                  
     GW BOUNDARY FLOW =                         GW BOUNDARY FLOW =                  


                                    OUT                                        OUT
                                    ---                                        ---
   EVAPOTRANSPIRATION =        1.7511D+08     EVAPOTRANSPIRATION =        3259410.82
           STREAMFLOW =        5.8227D+07             STREAMFLOW =         172184.20
     GW BOUNDARY FLOW =                         GW BOUNDARY FLOW =                  

   INFLOWS - OUTFLOWS =        4.1994D+08     INFLOWS - OUTFLOWS =       -3431595.03
             --------                                   --------

 TOTAL STORAGE CHANGE =        2.8196D+08         STORAGE CHANGE =       -5383383.86
       --------------                             --------------
         LAND SURFACE =        1.5009D+08           LAND SURFACE =       -7639635.76
            SOIL ZONE =        2.5134D+07              SOIL ZONE =        -932876.23
     UNSATURATED ZONE =         634339.91       UNSATURATED ZONE =         310621.51
       SATURATED ZONE =       -1.4505D+07         SATURATED ZONE =         285154.62
                LAKES =        1.2061D+08                  LAKES =        2593352.00

 OVERALL BUDGET ERROR =        1.3798D+08           BUDGET ERROR =        1951788.83

  ***WARNING, CUMULATIVE VOLUME OFF > 5%
  ***CAUTION, FLUX RATES OFF > 10%

  PERCENT DISCREPANCY =             23.61    PERCENT DISCREPANCY =             44.28



1
 SUMMARY VOLUMETRIC BUDGET FOR GSFLOW 
 DATE: 04 21 1981              CUMULATIVE TIME STEP:     203
 MODFLOW STRESS PERIOD      1     CURRENT TIME STEP:     203     ITERATIONS:      51

 -----------------------------------------------------------------------------------

   CUMULATIVE VOLUMES               L**3   RATES FOR THIS TIME STEP           L**3/T
   ------------------                      ------------------------

                                     IN                                         IN
                                     --                                         --
        PRECIPITATION =        6.7418D+08          PRECIPITATION =                  
           STREAMFLOW =                               STREAMFLOW =                  
     GW BOUNDARY FLOW =                         GW BOUNDARY FLOW =                  


                                    OUT                                        OUT
                                    ---                                        ---
   EVAPOTRANSPIRATION =        1.9345D+08     EVAPOTRANSPIRATION =        3353028.66
           STREAMFLOW =        5.9443D+07             STREAMFLOW =         169579.31
     GW BOUNDARY FLOW =                         GW BOUNDARY FLOW =                  

   INFLOWS - OUTFLOWS =        4.2129D+08     INFLOWS - OUTFLOWS =       -3522607.97
             --------                                   --------

 TOTAL STORAGE CHANGE =        2.7155D+08         STORAGE CHANGE =       -5824872.15
       --------------                             --------------
         LAND SURFACE =        1.2707D+08           LAND SURFACE =       -3302133.36
            SOIL ZONE =        2.3142D+07              SOIL ZONE =       -2040864.97
     UNSATURATED ZONE =        1964428.87       UNSATURATED ZONE =         168295.84
       SATURATED ZONE =       -1.4298D+07         SATURATED ZONE =         -86169.59
                LAKES =        1.3367D+08                  LAKES =        -564000.06

 OVERALL BUDGET ERROR =        1.4974D+08           BUDGET ERROR =        2302264.19

  ***WARNING, CUMULATIVE VOLUME OFF > 5%
  ***CAUTION, FLUX RATES OFF > 10%

  PERCENT DISCREPANCY =             24.99    PERCENT DISCREPANCY =             49.26



1
 SUMMARY VOLUMETRIC BUDGET FOR GSFLOW 
 DATE: 04 28 1981              CUMULATIVE TIME STEP:     210
 MODFLOW STRESS PERIOD      1     CURRENT TIME STEP:     210     ITERATIONS:      43

 -----------------------------------------------------------------------------------

   CUMULATIVE VOLUMES               L**3   RATES FOR THIS TIME STEP           L**3/T
   ------------------                      ------------------------

                                     IN                                         IN
                                     --                                         --
        PRECIPITATION =        6.8114D+08          PRECIPITATION =                  
           STREAMFLOW =                               STREAMFLOW =                  
     GW BOUNDARY FLOW =                         GW BOUNDARY FLOW =                  


                                    OUT                                        OUT
                                    ---                                        ---
   EVAPOTRANSPIRATION =        2.1829D+08     EVAPOTRANSPIRATION =        3447573.03
           STREAMFLOW =        6.0655D+07             STREAMFLOW =         169029.37
     GW BOUNDARY FLOW =                         GW BOUNDARY FLOW =                  

   INFLOWS - OUTFLOWS =        4.0220D+08     INFLOWS - OUTFLOWS =       -3616602.41
             --------                                   --------

 TOTAL STORAGE CHANGE =        2.3541D+08         STORAGE CHANGE =       -5908419.41
       --------------                             --------------
         LAND SURFACE =        1.0063D+08           LAND SURFACE =       -4252967.25
            SOIL ZONE =        1.3232D+07              SOIL ZONE =       -1651836.39
     UNSATURATED ZONE =        2096816.25       UNSATURATED ZONE =        -108531.61
       SATURATED ZONE =       -1.4410D+07         SATURATED ZONE =         140109.66
                LAKES =        1.3387D+08                  LAKES =         -35193.82

 OVERALL BUDGET ERROR =        1.6679D+08           BUDGET ERROR =        2291817.00

  ***WARNING, CUMULATIVE VOLUME OFF > 5%
  ***CAUTION, FLUX RATES OFF > 10%

  PERCENT DISCREPANCY =             27.90    PERCENT DISCREPANCY =             48.12



1
 SUMMARY VOLUMETRIC BUDGET FOR GSFLOW 
 DATE: 05 05 1981              CUMULATIVE TIME STEP:     217
 MODFLOW STRESS PERIOD      1     CURRENT TIME STEP:     217     ITERATIONS:      39

 -----------------------------------------------------------------------------------

   CUMULATIVE VOLUMES               L**3   RATES FOR THIS TIME STEP           L**3/T
   ------------------                      ------------------------

                                     IN                                         IN
                                     --                                         --
        PRECIPITATION =        6.8811D+08          PRECIPITATION =                  
           STREAMFLOW =                               STREAMFLOW =                  
     GW BOUNDARY FLOW =                         GW BOUNDARY FLOW =                  


                                    OUT                                        OUT
                                    ---                                        ---
   EVAPOTRANSPIRATION =        2.4047D+08     EVAPOTRANSPIRATION =        2168838.99
           STREAMFLOW =        6.1872D+07             STREAMFLOW =         173796.00
     GW BOUNDARY FLOW =                         GW BOUNDARY FLOW =                  

   INFLOWS - OUTFLOWS =        3.8576D+08     INFLOWS - OUTFLOWS =       -2342634.99
             --------                                   --------

 TOTAL STORAGE CHANGE =        2.0244D+08         STORAGE CHANGE =       -4055573.05
       --------------                             --------------
         LAND SURFACE =        7.3996D+07           LAND SURFACE =       -3142859.36
            SOIL ZONE =        6670096.75              SOIL ZONE =        -907142.02
     UNSATURATED ZONE =         273502.13       UNSATURATED ZONE =        -116643.22
       SATURATED ZONE =       -1.3417D+07         SATURATED ZONE =         -39497.19
                LAKES =        1.3492D+08                  LAKES =         150568.73

 OVERALL BUDGET ERROR =        1.8332D+08           BUDGET ERROR =        1712938.06

  ***WARNING, CUMULATIVE VOLUME OFF > 5%
  ***CAUTION, FLUX RATES OFF > 10%

  PERCENT DISCREPANCY =             30.74    PERCENT DISCREPANCY =             53.54



1
 SUMMARY VOLUMETRIC BUDGET FOR GSFLOW 
 DATE: 05 12 1981              CUMULATIVE TIME STEP:     224
 MODFLOW STRESS PERIOD      1     CURRENT TIME STEP:     224     ITERATIONS:      42

 -----------------------------------------------------------------------------------

   CUMULATIVE VOLUMES               L**3   RATES FOR THIS TIME STEP           L**3/T
   ------------------                      ------------------------

                                     IN                                         IN
                                     --                                         --
        PRECIPITATION =        6.8811D+08          PRECIPITATION =                  
           STREAMFLOW =                               STREAMFLOW =                  
     GW BOUNDARY FLOW =                         GW BOUNDARY FLOW =                  


                                    OUT                                        OUT
                                    ---                                        ---
   EVAPOTRANSPIRATION =        2.5698D+08     EVAPOTRANSPIRATION =        2540336.96
           STREAMFLOW =        6.3069D+07             STREAMFLOW =         168853.17
     GW BOUNDARY FLOW =                         GW BOUNDARY FLOW =                  

   INFLOWS - OUTFLOWS =        3.6806D+08     INFLOWS - OUTFLOWS =       -2709190.13
             --------                                   --------

 TOTAL STORAGE CHANGE =        1.7184D+08         STORAGE CHANGE =       -4837130.59
       --------------                             --------------
         LAND SURFACE =        4.9094D+07           LAND SURFACE =       -3677638.49
            SOIL ZONE =         138232.91              SOIL ZONE =        -939182.22
     UNSATURATED ZONE =       -2653805.86       UNSATURATED ZONE =        -972163.19
       SATURATED ZONE =       -1.2019D+07         SATURATED ZONE =         537385.75
                LAKES =        1.3728D+08                  LAKES =         214467.56

 OVERALL BUDGET ERROR =        1.9622D+08           BUDGET ERROR =        2127940.46

  ***WARNING, CUMULATIVE VOLUME OFF > 5%
  ***CAUTION, FLUX RATES OFF > 10%

  PERCENT DISCREPANCY =             33.26    PERCENT DISCREPANCY =             56.40



1
 SUMMARY VOLUMETRIC BUDGET FOR GSFLOW 
 DATE: 05 19 1981              CUMULATIVE TIME STEP:     231
 MODFLOW STRESS PERIOD      1     CURRENT TIME STEP:     231     ITERATIONS:      39

 -----------------------------------------------------------------------------------

   CUMULATIVE VOLUMES               L**3   RATES FOR THIS TIME STEP           L**3/T
   ------------------                      ------------------------

                                     IN                                         IN
                                     --                                         --
        PRECIPITATION =        7.4671D+08          PRECIPITATION =        3447112.78
           STREAMFLOW =                               STREAMFLOW =                  
     GW BOUNDARY FLOW =                         GW BOUNDARY FLOW =                  


                                    OUT                                        OUT
                                    ---                                        ---
   EVAPOTRANSPIRATION =        2.6697D+08     EVAPOTRANSPIRATION =        1089455.89
           STREAMFLOW =        6.4259D+07             STREAMFLOW =         172527.06
     GW BOUNDARY FLOW =                         GW BOUNDARY FLOW =                  

   INFLOWS - OUTFLOWS =        4.1548D+08     INFLOWS - OUTFLOWS =        2185129.82
             --------                                   --------

 TOTAL STORAGE CHANGE =        2.1005D+08         STORAGE CHANGE =        1522896.98
       --------------                             --------------
         LAND SURFACE =        5.2560D+07           LAND SURFACE =       -3316295.82
            SOIL ZONE =        1.1096D+07              SOIL ZONE =        1981555.75
     UNSATURATED ZONE =       -2978506.73       UNSATURATED ZONE =          35893.28
       SATURATED ZONE =       -1.1746D+07         SATURATED ZONE =          57802.77
                LAKES =        1.6112D+08                  LAKES =        2763941.00

 OVERALL BUDGET ERROR =        2.0543D+08           BUDGET ERROR =         662232.85

  ***WARNING, CUMULATIVE VOLUME OFF > 5%
  ***CAUTION, FLUX RATES OFF > 10%

  PERCENT DISCREPANCY =             31.90    PERCENT DISCREPANCY =             21.25



1
 SUMMARY VOLUMETRIC BUDGET FOR GSFLOW 
 DATE: 05 26 1981              CUMULATIVE TIME STEP:     238
 MODFLOW STRESS PERIOD      1     CURRENT TIME STEP:     238     ITERATIONS:      45

 -----------------------------------------------------------------------------------

   CUMULATIVE VOLUMES               L**3   RATES FOR THIS TIME STEP           L**3/T
   ------------------                      ------------------------

                                     IN                                         IN
                                     --                                         --
        PRECIPITATION =        7.7429D+08          PRECIPITATION =        1.7236D+07
           STREAMFLOW =                               STREAMFLOW =                  
     GW BOUNDARY FLOW =                         GW BOUNDARY FLOW =                  


                                    OUT                                        OUT
                                    ---                                        ---
   EVAPOTRANSPIRATION =        2.8533D+08     EVAPOTRANSPIRATION =        1602357.22
           STREAMFLOW =        6.5461D+07             STREAMFLOW =         180466.05
     GW BOUNDARY FLOW =                         GW BOUNDARY FLOW =                  

   INFLOWS - OUTFLOWS =        4.2349D+08     INFLOWS - OUTFLOWS =        1.5453D+07
             --------                                   --------

 TOTAL STORAGE CHANGE =        2.0492D+08         STORAGE CHANGE =        1.4354D+07
       --------------                             --------------
         LAND SURFACE =        3.5549D+07           LAND SURFACE =        -311649.70
            SOIL ZONE =        9656333.53              SOIL ZONE =        4565744.37
     UNSATURATED ZONE =       -2892777.32       UNSATURATED ZONE =          58836.68
       SATURATED ZONE =       -1.1230D+07         SATURATED ZONE =         587305.31
                LAKES =        1.7384D+08                  LAKES =        9453575.00

 OVERALL BUDGET ERROR =        2.1857D+08           BUDGET ERROR =        1098928.73

  ***WARNING, CUMULATIVE VOLUME OFF > 5%
  ***WARNING, FLUX RATES OFF > 3%

  PERCENT DISCREPANCY =             32.87    PERCENT DISCREPANCY =              6.59



1
 SUMMARY VOLUMETRIC BUDGET FOR GSFLOW 
 DATE: 06 02 1981              CUMULATIVE TIME STEP:     245
 MODFLOW STRESS PERIOD      1     CURRENT TIME STEP:     245     ITERATIONS:      45

 -----------------------------------------------------------------------------------

   CUMULATIVE VOLUMES               L**3   RATES FOR THIS TIME STEP           L**3/T
   ------------------                      ------------------------

                                     IN                                         IN
                                     --                                         --
        PRECIPITATION =        7.7429D+08          PRECIPITATION =                  
           STREAMFLOW =                               STREAMFLOW =                  
     GW BOUNDARY FLOW =                         GW BOUNDARY FLOW =                  


                                    OUT                                        OUT
                                    ---                                        ---
   EVAPOTRANSPIRATION =        3.0835D+08     EVAPOTRANSPIRATION =        3073156.59
           STREAMFLOW =        6.6681D+07             STREAMFLOW =         178725.95
     GW BOUNDARY FLOW =                         GW BOUNDARY FLOW =                  

   INFLOWS - OUTFLOWS =        3.9925D+08     INFLOWS - OUTFLOWS =       -3251882.55
             --------                                   --------

 TOTAL STORAGE CHANGE =        1.6261D+08         STORAGE CHANGE =       -6088884.51
       --------------                             --------------
         LAND SURFACE =        2.1595D+07           LAND SURFACE =       -1680702.72
            SOIL ZONE =       -6170555.78              SOIL ZONE =       -1912564.23
     UNSATURATED ZONE =       -7788446.18       UNSATURATED ZONE =        -227757.87
       SATURATED ZONE =       -9585925.56         SATURATED ZONE =        -225114.69
                LAKES =        1.6456D+08                  LAKES =       -2042745.00

 OVERALL BUDGET ERROR =        2.3665D+08           BUDGET ERROR =        2837001.96

  ***WARNING, CUMULATIVE VOLUME OFF > 5%
  ***CAUTION, FLUX RATES OFF > 10%

  PERCENT DISCREPANCY =             36.08    PERCENT DISCREPANCY =             60.74



1
 SUMMARY VOLUMETRIC BUDGET FOR GSFLOW 
 DATE: 06 09 1981              CUMULATIVE TIME STEP:     252
 MODFLOW STRESS PERIOD      1     CURRENT TIME STEP:     252     ITERATIONS:      28

 -----------------------------------------------------------------------------------

   CUMULATIVE VOLUMES               L**3   RATES FOR THIS TIME STEP           L**3/T
   ------------------                      ------------------------

                                     IN                                         IN
                                     --                                         --
        PRECIPITATION =        7.7752D+08          PRECIPITATION =                  
           STREAMFLOW =                               STREAMFLOW =                  
     GW BOUNDARY FLOW =                         GW BOUNDARY FLOW =                  


                                    OUT                                        OUT
                                    ---                                        ---
   EVAPOTRANSPIRATION =        3.2785D+08     EVAPOTRANSPIRATION =        2749228.21
           STREAMFLOW =        6.7924D+07             STREAMFLOW =         203133.83
[...]
 MODFLOW STRESS PERIOD      1     CURRENT TIME STEP:    1155     ITERATIONS:      14

 -----------------------------------------------------------------------------------

   CUMULATIVE VOLUMES               L**3   RATES FOR THIS TIME STEP           L**3/T
   ------------------                      ------------------------

                                     IN                                         IN
                                     --                                         --
        PRECIPITATION =        5.5463D+09          PRECIPITATION =        6461469.31
           STREAMFLOW =                               STREAMFLOW =                  
     GW BOUNDARY FLOW =                         GW BOUNDARY FLOW =                  


                                    OUT                                        OUT
                                    ---                                        ---
   EVAPOTRANSPIRATION =        1.5449D+09     EVAPOTRANSPIRATION =         214431.33
           STREAMFLOW =        1.6169D+09             STREAMFLOW =        4966705.50
     GW BOUNDARY FLOW =                         GW BOUNDARY FLOW =                  

   INFLOWS - OUTFLOWS =        2.3844D+09     INFLOWS - OUTFLOWS =        1280332.47
             --------                                   --------

 TOTAL STORAGE CHANGE =        9.5827D+08         STORAGE CHANGE =        1098349.88
       --------------                             --------------
         LAND SURFACE =        3.3601D+08           LAND SURFACE =        4614418.78
            SOIL ZONE =        4987245.47              SOIL ZONE =         -70508.24
     UNSATURATED ZONE =       -1.4320D+07       UNSATURATED ZONE =            324.53
       SATURATED ZONE =       -6.8252D+07         SATURATED ZONE =        -138794.69
                LAKES =        6.9985D+08                  LAKES =       -3307090.50

 OVERALL BUDGET ERROR =        1.4262D+09           BUDGET ERROR =         181982.59

  ***WARNING, CUMULATIVE VOLUME OFF > 5%

  PERCENT DISCREPANCY =             29.51    PERCENT DISCREPANCY =              2.86



1
 SUMMARY VOLUMETRIC BUDGET FOR GSFLOW 
 DATE: 12 06 1983              CUMULATIVE TIME STEP:    1162
 MODFLOW STRESS PERIOD      1     CURRENT TIME STEP:    1162     ITERATIONS:      12

 -----------------------------------------------------------------------------------

   CUMULATIVE VOLUMES               L**3   RATES FOR THIS TIME STEP           L**3/T
   ------------------                      ------------------------

                                     IN                                         IN
                                     --                                         --
        PRECIPITATION =        5.6038D+09          PRECIPITATION =        3198161.89
           STREAMFLOW =                               STREAMFLOW =                  
     GW BOUNDARY FLOW =                         GW BOUNDARY FLOW =                  


                                    OUT                                        OUT
                                    ---                                        ---
   EVAPOTRANSPIRATION =        1.5471D+09     EVAPOTRANSPIRATION =          93149.12
           STREAMFLOW =        1.6523D+09             STREAMFLOW =        5064639.00
     GW BOUNDARY FLOW =                         GW BOUNDARY FLOW =                  

   INFLOWS - OUTFLOWS =        2.4045D+09     INFLOWS - OUTFLOWS =       -1959626.22
             --------                                   --------

 TOTAL STORAGE CHANGE =        9.7625D+08         STORAGE CHANGE =       -2082018.04
       --------------                             --------------
         LAND SURFACE =        3.7453D+08           LAND SURFACE =        2297029.22
            SOIL ZONE =        5536973.02              SOIL ZONE =        -127126.28
     UNSATURATED ZONE =       -1.4094D+07       UNSATURATED ZONE =         -25523.07
       SATURATED ZONE =       -6.9262D+07         SATURATED ZONE =        -101693.15
                LAKES =        6.7953D+08                  LAKES =       -4124704.75

 OVERALL BUDGET ERROR =        1.4282D+09           BUDGET ERROR =         122391.81

  ***WARNING, CUMULATIVE VOLUME OFF > 5%

  PERCENT DISCREPANCY =             29.21    PERCENT DISCREPANCY =              2.35



1
 SUMMARY VOLUMETRIC BUDGET FOR GSFLOW 
 DATE: 12 13 1983              CUMULATIVE TIME STEP:    1169
 MODFLOW STRESS PERIOD      1     CURRENT TIME STEP:    1169     ITERATIONS:      15

 -----------------------------------------------------------------------------------

   CUMULATIVE VOLUMES               L**3   RATES FOR THIS TIME STEP           L**3/T
   ------------------                      ------------------------

                                     IN                                         IN
                                     --                                         --
        PRECIPITATION =        5.6998D+09          PRECIPITATION =        9594484.95
           STREAMFLOW =                               STREAMFLOW =                  
     GW BOUNDARY FLOW =                         GW BOUNDARY FLOW =                  


                                    OUT                                        OUT
                                    ---                                        ---
   EVAPOTRANSPIRATION =        1.5491D+09     EVAPOTRANSPIRATION =         135731.44
           STREAMFLOW =        1.6893D+09             STREAMFLOW =        5260512.00
     GW BOUNDARY FLOW =                         GW BOUNDARY FLOW =                  

   INFLOWS - OUTFLOWS =        2.4613D+09     INFLOWS - OUTFLOWS =        4198241.51
             --------                                   --------

 TOTAL STORAGE CHANGE =        1.0308D+09         STORAGE CHANGE =        4046052.06
       --------------                             --------------
         LAND SURFACE =        4.3881D+08           LAND SURFACE =        7023337.24
            SOIL ZONE =        6775783.60              SOIL ZONE =        -177690.38
     UNSATURATED ZONE =       -1.3605D+07       UNSATURATED ZONE =          51444.11
       SATURATED ZONE =       -7.0043D+07         SATURATED ZONE =        -175070.91
                LAKES =        6.6885D+08                  LAKES =       -2675968.00

 OVERALL BUDGET ERROR =        1.4305D+09           BUDGET ERROR =         152189.44

  ***WARNING, CUMULATIVE VOLUME OFF > 5%

  PERCENT DISCREPANCY =             28.70    PERCENT DISCREPANCY =              1.60



1
 SUMMARY VOLUMETRIC BUDGET FOR GSFLOW 
 DATE: 12 20 1983              CUMULATIVE TIME STEP:    1176
 MODFLOW STRESS PERIOD      1     CURRENT TIME STEP:    1176     ITERATIONS:       2

 -----------------------------------------------------------------------------------

   CUMULATIVE VOLUMES               L**3   RATES FOR THIS TIME STEP           L**3/T
   ------------------                      ------------------------

                                     IN                                         IN
                                     --                                         --
        PRECIPITATION =        5.7158D+09          PRECIPITATION =                  
           STREAMFLOW =                               STREAMFLOW =                  
     GW BOUNDARY FLOW =                         GW BOUNDARY FLOW =                  


                                    OUT                                        OUT
                                    ---                                        ---
   EVAPOTRANSPIRATION =        1.5539D+09     EVAPOTRANSPIRATION =         232396.78
           STREAMFLOW =        1.7278D+09             STREAMFLOW =        5578472.50
     GW BOUNDARY FLOW =                         GW BOUNDARY FLOW =                  

   INFLOWS - OUTFLOWS =        2.4340D+09     INFLOWS - OUTFLOWS =       -5810869.28
             --------                                   --------

 TOTAL STORAGE CHANGE =        1.0001D+09         STORAGE CHANGE =       -5952050.26
       --------------                             --------------
         LAND SURFACE =        4.4222D+08           LAND SURFACE =        -213865.81
            SOIL ZONE =        7502779.72              SOIL ZONE =        -177092.15
     UNSATURATED ZONE =       -1.3204D+07       UNSATURATED ZONE =          48268.44
       SATURATED ZONE =       -7.1082D+07         SATURATED ZONE =        -186399.73
                LAKES =        6.3466D+08                  LAKES =       -5422961.00

 OVERALL BUDGET ERROR =        1.4339D+09           BUDGET ERROR =         141180.98

  ***WARNING, CUMULATIVE VOLUME OFF > 5%

  PERCENT DISCREPANCY =             28.69    PERCENT DISCREPANCY =              2.40



1
 SUMMARY VOLUMETRIC BUDGET FOR GSFLOW 
 DATE: 12 27 1983              CUMULATIVE TIME STEP:    1183
 MODFLOW STRESS PERIOD      1     CURRENT TIME STEP:    1183     ITERATIONS:      18

 -----------------------------------------------------------------------------------

   CUMULATIVE VOLUMES               L**3   RATES FOR THIS TIME STEP           L**3/T
   ------------------                      ------------------------

                                     IN                                         IN
                                     --                                         --
        PRECIPITATION =        5.8917D+09          PRECIPITATION =        9594484.95
           STREAMFLOW =                               STREAMFLOW =                  
     GW BOUNDARY FLOW =                         GW BOUNDARY FLOW =                  


                                    OUT                                        OUT
                                    ---                                        ---
   EVAPOTRANSPIRATION =        1.5553D+09     EVAPOTRANSPIRATION =         248487.62
           STREAMFLOW =        1.7668D+09             STREAMFLOW =        5677393.00
     GW BOUNDARY FLOW =                         GW BOUNDARY FLOW =                  

   INFLOWS - OUTFLOWS =        2.5696D+09     INFLOWS - OUTFLOWS =        3668604.32
             --------                                   --------

 TOTAL STORAGE CHANGE =        1.1338D+09         STORAGE CHANGE =        3412104.29
       --------------                             --------------
         LAND SURFACE =        5.6722D+08           LAND SURFACE =        5883791.66
            SOIL ZONE =        8227790.45              SOIL ZONE =         228837.68
     UNSATURATED ZONE =       -1.2871D+07       UNSATURATED ZONE =         110456.36
       SATURATED ZONE =       -7.1778D+07         SATURATED ZONE =        -104468.91
                LAKES =        6.4299D+08                  LAKES =       -2706512.50

 OVERALL BUDGET ERROR =        1.4358D+09           BUDGET ERROR =         256500.04

  ***WARNING, CUMULATIVE VOLUME OFF > 5%

  PERCENT DISCREPANCY =             27.75    PERCENT DISCREPANCY =              2.71



1
 SUMMARY VOLUMETRIC BUDGET FOR GSFLOW 
 DATE: 01 03 1984              CUMULATIVE TIME STEP:    1190
 MODFLOW STRESS PERIOD      1     CURRENT TIME STEP:    1190     ITERATIONS:       4

 -----------------------------------------------------------------------------------

   CUMULATIVE VOLUMES               L**3   RATES FOR THIS TIME STEP           L**3/T
   ------------------                      ------------------------

                                     IN                                         IN
                                     --                                         --
        PRECIPITATION =        5.9235D+09          PRECIPITATION =                  
           STREAMFLOW =                               STREAMFLOW =                  
     GW BOUNDARY FLOW =                         GW BOUNDARY FLOW =                  


                                    OUT                                        OUT
                                    ---                                        ---
   EVAPOTRANSPIRATION =        1.5592D+09     EVAPOTRANSPIRATION =         999857.98
           STREAMFLOW =        1.8064D+09             STREAMFLOW =        5603065.50
     GW BOUNDARY FLOW =                         GW BOUNDARY FLOW =                  

   INFLOWS - OUTFLOWS =        2.5578D+09     INFLOWS - OUTFLOWS =       -6602923.48
             --------                                   --------

 TOTAL STORAGE CHANGE =        1.1189D+09         STORAGE CHANGE =       -7117834.45
       --------------                             --------------
         LAND SURFACE =        5.8049D+08           LAND SURFACE =        -951131.12
            SOIL ZONE =        8936378.76              SOIL ZONE =        -189785.09
     UNSATURATED ZONE =       -1.2383D+07       UNSATURATED ZONE =          10234.02
       SATURATED ZONE =       -7.2691D+07         SATURATED ZONE =        -191144.77
                LAKES =        6.1459D+08                  LAKES =       -5796007.50

 OVERALL BUDGET ERROR =        1.4389D+09           BUDGET ERROR =         514910.96

  ***WARNING, CUMULATIVE VOLUME OFF > 5%
  ***WARNING, FLUX RATES OFF > 3%

  PERCENT DISCREPANCY =             27.65    PERCENT DISCREPANCY =              7.51



1
 SUMMARY VOLUMETRIC BUDGET FOR GSFLOW 
 DATE: 01 10 1984              CUMULATIVE TIME STEP:    1197
 MODFLOW STRESS PERIOD      1     CURRENT TIME STEP:    1197     ITERATIONS:       6

 -----------------------------------------------------------------------------------

   CUMULATIVE VOLUMES               L**3   RATES FOR THIS TIME STEP           L**3/T
   ------------------                      ------------------------

                                     IN                                         IN
                                     --                                         --
        PRECIPITATION =        5.9235D+09          PRECIPITATION =                  
           STREAMFLOW =                               STREAMFLOW =                  
     GW BOUNDARY FLOW =                         GW BOUNDARY FLOW =                  


                                    OUT                                        OUT
                                    ---                                        ---
   EVAPOTRANSPIRATION =        1.5679D+09     EVAPOTRANSPIRATION =        1194830.70
           STREAMFLOW =        1.8439D+09             STREAMFLOW =        5235933.50
     GW BOUNDARY FLOW =                         GW BOUNDARY FLOW =                  

   INFLOWS - OUTFLOWS =        2.5117D+09     INFLOWS - OUTFLOWS =       -6430764.20
             --------                                   --------

 TOTAL STORAGE CHANGE =        1.0686D+09         STORAGE CHANGE =       -7036321.25
       --------------                             --------------
         LAND SURFACE =        5.6881D+08           LAND SURFACE =       -1899310.74
            SOIL ZONE =        9904408.90              SOIL ZONE =         270184.21
     UNSATURATED ZONE =       -1.2363D+07       UNSATURATED ZONE =          11138.05
       SATURATED ZONE =       -7.3617D+07         SATURATED ZONE =         -84818.27
                LAKES =        5.7582D+08                  LAKES =       -5333514.50

 OVERALL BUDGET ERROR =        1.4431D+09           BUDGET ERROR =         605557.05

  ***WARNING, CUMULATIVE VOLUME OFF > 5%
  ***WARNING, FLUX RATES OFF > 3%

  PERCENT DISCREPANCY =             27.74    PERCENT DISCREPANCY =              8.99



1
 SUMMARY VOLUMETRIC BUDGET FOR GSFLOW 
 DATE: 01 17 1984              CUMULATIVE TIME STEP:    1204
 MODFLOW STRESS PERIOD      1     CURRENT TIME STEP:    1204     ITERATIONS:       3

 -----------------------------------------------------------------------------------

   CUMULATIVE VOLUMES               L**3   RATES FOR THIS TIME STEP           L**3/T
   ------------------                      ------------------------

                                     IN                                         IN
                                     --                                         --
        PRECIPITATION =        5.9475D+09          PRECIPITATION =                  
           STREAMFLOW =                               STREAMFLOW =                  
     GW BOUNDARY FLOW =                         GW BOUNDARY FLOW =                  


                                    OUT                                        OUT
                                    ---                                        ---
   EVAPOTRANSPIRATION =        1.5703D+09     EVAPOTRANSPIRATION =         387537.05
           STREAMFLOW =        1.8796D+09             STREAMFLOW =        5015584.50
     GW BOUNDARY FLOW =                         GW BOUNDARY FLOW =                  

   INFLOWS - OUTFLOWS =        2.4976D+09     INFLOWS - OUTFLOWS =       -5403121.55
             --------                                   --------

 TOTAL STORAGE CHANGE =        1.0530D+09         STORAGE CHANGE =       -5544247.34
       --------------                             --------------
         LAND SURFACE =        5.8433D+08           LAND SURFACE =        -355918.57
            SOIL ZONE =        8959670.39              SOIL ZONE =         -93499.34
     UNSATURATED ZONE =       -1.2289D+07       UNSATURATED ZONE =            859.36
       SATURATED ZONE =       -7.4682D+07         SATURATED ZONE =        -162773.80
                LAKES =        5.4665D+08                  LAKES =       -4932915.00

 OVERALL BUDGET ERROR =        1.4446D+09           BUDGET ERROR =         141125.79

  ***WARNING, CUMULATIVE VOLUME OFF > 5%

  PERCENT DISCREPANCY =             27.65    PERCENT DISCREPANCY =              2.58



1
 SUMMARY VOLUMETRIC BUDGET FOR GSFLOW 
 DATE: 01 24 1984              CUMULATIVE TIME STEP:    1211
 MODFLOW STRESS PERIOD      1     CURRENT TIME STEP:    1211     ITERATIONS:       8

 -----------------------------------------------------------------------------------

   CUMULATIVE VOLUMES               L**3   RATES FOR THIS TIME STEP           L**3/T
   ------------------                      ------------------------

                                     IN                                         IN
                                     --                                         --
        PRECIPITATION =        5.9535D+09          PRECIPITATION =                  
           STREAMFLOW =                               STREAMFLOW =                  
     GW BOUNDARY FLOW =                         GW BOUNDARY FLOW =                  


                                    OUT                                        OUT
                                    ---                                        ---
   EVAPOTRANSPIRATION =        1.5737D+09     EVAPOTRANSPIRATION =         632539.57
           STREAMFLOW =        1.9144D+09             STREAMFLOW =        4917690.00
     GW BOUNDARY FLOW =                         GW BOUNDARY FLOW =                  

   INFLOWS - OUTFLOWS =        2.4654D+09     INFLOWS - OUTFLOWS =       -5550229.57
             --------                                   --------

 TOTAL STORAGE CHANGE =        1.0185D+09         STORAGE CHANGE =       -6003249.27
       --------------                             --------------
         LAND SURFACE =        5.8574D+08           LAND SURFACE =        -567657.68
            SOIL ZONE =        8459458.22              SOIL ZONE =         -62785.10
     UNSATURATED ZONE =       -1.2523D+07       UNSATURATED ZONE =         -47939.41
       SATURATED ZONE =       -7.5729D+07         SATURATED ZONE =        -155785.58
                LAKES =        5.1259D+08                  LAKES =       -5169081.50

 OVERALL BUDGET ERROR =        1.4469D+09           BUDGET ERROR =         453019.70

  ***WARNING, CUMULATIVE VOLUME OFF > 5%
  ***WARNING, FLUX RATES OFF > 3%

  PERCENT DISCREPANCY =             27.66    PERCENT DISCREPANCY =              7.84



