1
 SUMMARY VOLUMETRIC BUDGET FOR GSFLOW 
 DATE: 10 07 1980              CUMULATIVE TIME STEP:       7
 MODFLOW STRESS PERIOD      1     CURRENT TIME STEP:       7     ITERATIONS:      14

 -----------------------------------------------------------------------------------

   CUMULATIVE VOLUMES               L**3   RATES FOR THIS TIME STEP           L**3/T
   ------------------                      ------------------------

                                     IN                                         IN
                                     --                                         --
        PRECIPITATION =                            PRECIPITATION =                  
           STREAMFLOW =                               STREAMFLOW =                  
     GW BOUNDARY FLOW =                         GW BOUNDARY FLOW =                  


                                    OUT                                        OUT
                                    ---                                        ---
   EVAPOTRANSPIRATION =        1.5511D+07     EVAPOTRANSPIRATION =        1478881.36
           STREAMFLOW =        1672058.77             STREAMFLOW =         183556.67
     GW BOUNDARY FLOW =                         GW BOUNDARY FLOW =                  

   INFLOWS - OUTFLOWS =       -1.7183D+07     INFLOWS - OUTFLOWS =       -1662438.03
             --------                                   --------

 TOTAL STORAGE CHANGE =       -1.7157D+07         STORAGE CHANGE =       -1664464.04
       --------------                             --------------
         LAND SURFACE =                             LAND SURFACE =                  
            SOIL ZONE =       -5762112.92              SOIL ZONE =        -270466.01
     UNSATURATED ZONE =       -1007857.33       UNSATURATED ZONE =         -54924.13
       SATURATED ZONE =       -1300472.53         SATURATED ZONE =        -269872.03
                LAKES =       -9086212.75                  LAKES =       -1069201.88

 OVERALL BUDGET ERROR =         -26524.37           BUDGET ERROR =           2026.01


  PERCENT DISCREPANCY =             -0.15    PERCENT DISCREPANCY =              0.12



1
 SUMMARY VOLUMETRIC BUDGET FOR GSFLOW 
 DATE: 10 14 1980              CUMULATIVE TIME STEP:      14
 MODFLOW STRESS PERIOD      1     CURRENT TIME STEP:      14     ITERATIONS:       3

 -----------------------------------------------------------------------------------

   CUMULATIVE VOLUMES               L**3   RATES FOR THIS TIME STEP           L**3/T
   ------------------                      ------------------------

                                     IN                                         IN
                                     --                                         --
        PRECIPITATION =        1.3442D+07          PRECIPITATION =        6721104.51
           STREAMFLOW =                               STREAMFLOW =                  
     GW BOUNDARY FLOW =                         GW BOUNDARY FLOW =                  


                                    OUT                                        OUT
                                    ---                                        ---
   EVAPOTRANSPIRATION =        2.3219D+07     EVAPOTRANSPIRATION =         507117.51
           STREAMFLOW =        2279257.54             STREAMFLOW =          34825.50
     GW BOUNDARY FLOW =                         GW BOUNDARY FLOW =                  

   INFLOWS - OUTFLOWS =       -1.2056D+07     INFLOWS - OUTFLOWS =        6179161.50
             --------                                   --------

 TOTAL STORAGE CHANGE =       -1.2114D+07         STORAGE CHANGE =        6135114.84
       --------------                             --------------
         LAND SURFACE =        2292332.54           LAND SURFACE =        1396244.76
            SOIL ZONE =         161533.00              SOIL ZONE =        3128771.07
     UNSATURATED ZONE =       -1444831.16       UNSATURATED ZONE =         -57088.55
       SATURATED ZONE =       -2728961.05         SATURATED ZONE =        -120497.20
                LAKES =       -1.0394D+07                  LAKES =        1787684.75

 OVERALL BUDGET ERROR =          57876.26           BUDGET ERROR =          44046.66


  PERCENT DISCREPANCY =              0.23    PERCENT DISCREPANCY =              0.66



1
 SUMMARY VOLUMETRIC BUDGET FOR GSFLOW 
 DATE: 10 21 1980              CUMULATIVE TIME STEP:      21
 MODFLOW STRESS PERIOD      1     CURRENT TIME STEP:      21     ITERATIONS:       3

 -----------------------------------------------------------------------------------

   CUMULATIVE VOLUMES               L**3   RATES FOR THIS TIME STEP           L**3/T
   ------------------                      ------------------------

                                     IN                                         IN
                                     --                                         --
        PRECIPITATION =        1.6803D+07          PRECIPITATION =                  
           STREAMFLOW =                               STREAMFLOW =                  
     GW BOUNDARY FLOW =                         GW BOUNDARY FLOW =                  


                                    OUT                                        OUT
                                    ---                                        ---
   EVAPOTRANSPIRATION =        3.0234D+07     EVAPOTRANSPIRATION =        1467069.00
           STREAMFLOW =        3039696.79             STREAMFLOW =         364392.81
     GW BOUNDARY FLOW =                         GW BOUNDARY FLOW =                  

   INFLOWS - OUTFLOWS =       -1.6471D+07     INFLOWS - OUTFLOWS =       -1831461.81
             --------                                   --------

 TOTAL STORAGE CHANGE =       -1.6547D+07         STORAGE CHANGE =       -1830544.79
       --------------                             --------------
         LAND SURFACE =         450933.11           LAND SURFACE =        -157820.81
            SOIL ZONE =        -318032.17              SOIL ZONE =        -679806.70
     UNSATURATED ZONE =       -1880814.51       UNSATURATED ZONE =         -58615.75
       SATURATED ZONE =       -3770200.19         SATURATED ZONE =        -158296.59
                LAKES =       -1.1029D+07                  LAKES =        -776004.94

 OVERALL BUDGET ERROR =          76581.80           BUDGET ERROR =           -917.02


  PERCENT DISCREPANCY =              0.23    PERCENT DISCREPANCY =             -0.05



1
 SUMMARY VOLUMETRIC BUDGET FOR GSFLOW 
 DATE: 10 28 1980              CUMULATIVE TIME STEP:      28
 MODFLOW STRESS PERIOD      1     CURRENT TIME STEP:      28     ITERATIONS:       4

 -----------------------------------------------------------------------------------

   CUMULATIVE VOLUMES               L**3   RATES FOR THIS TIME STEP           L**3/T
   ------------------                      ------------------------

                                     IN                                         IN
                                     --                                         --
        PRECIPITATION =        4.0327D+07          PRECIPITATION =                  
           STREAMFLOW =                               STREAMFLOW =                  
     GW BOUNDARY FLOW =                         GW BOUNDARY FLOW =                  


                                    OUT                                        OUT
                                    ---                                        ---
   EVAPOTRANSPIRATION =        3.7283D+07     EVAPOTRANSPIRATION =         461412.20
           STREAMFLOW =        5483164.94             STREAMFLOW =         342843.84
     GW BOUNDARY FLOW =                         GW BOUNDARY FLOW =                  

   INFLOWS - OUTFLOWS =       -2439472.99     INFLOWS - OUTFLOWS =        -804256.04
             --------                                   --------

 TOTAL STORAGE CHANGE =       -3027670.49         STORAGE CHANGE =        -758693.94
       --------------                             --------------
         LAND SURFACE =        4658064.73           LAND SURFACE =        -166816.91
            SOIL ZONE =        7120200.73              SOIL ZONE =        -272435.55
     UNSATURATED ZONE =       -2173590.84       UNSATURATED ZONE =         -31728.84
       SATURATED ZONE =       -4518343.02         SATURATED ZONE =        -125664.30
                LAKES =       -8114002.09                  LAKES =        -162048.34

 OVERALL BUDGET ERROR =         588197.49           BUDGET ERROR =         -45562.11

  ***WARNING, FLUX RATES OFF > 3%

  PERCENT DISCREPANCY =              1.37    PERCENT DISCREPANCY =             -5.83



1
 SUMMARY VOLUMETRIC BUDGET FOR GSFLOW 
 DATE: 11 04 1980              CUMULATIVE TIME STEP:      35
 MODFLOW STRESS PERIOD      1     CURRENT TIME STEP:      35     ITERATIONS:       7

 -----------------------------------------------------------------------------------

   CUMULATIVE VOLUMES               L**3   RATES FOR THIS TIME STEP           L**3/T
   ------------------                      ------------------------

                                     IN                                         IN
                                     --                                         --
        PRECIPITATION =        5.0408D+07          PRECIPITATION =                  
           STREAMFLOW =                               STREAMFLOW =                  
     GW BOUNDARY FLOW =                         GW BOUNDARY FLOW =                  


                                    OUT                                        OUT
                                    ---                                        ---
   EVAPOTRANSPIRATION =        5.2118D+07     EVAPOTRANSPIRATION =        2794249.12
           STREAMFLOW =        7932063.29             STREAMFLOW =         350030.38
     GW BOUNDARY FLOW =                         GW BOUNDARY FLOW =                  

   INFLOWS - OUTFLOWS =       -9641321.94     INFLOWS - OUTFLOWS =       -3144279.49
             --------                                   --------

 TOTAL STORAGE CHANGE =       -1.0551D+07         STORAGE CHANGE =       -3142476.77
       --------------                             --------------
         LAND SURFACE =         206598.96           LAND SURFACE =         -41867.41
            SOIL ZONE =        3882018.53              SOIL ZONE =       -1780735.23
     UNSATURATED ZONE =       -2135886.45       UNSATURATED ZONE =         -46046.51
       SATURATED ZONE =       -5056020.30         SATURATED ZONE =        -247701.12
                LAKES =       -7447776.46                  LAKES =       -1026126.50

 OVERALL BUDGET ERROR =         909743.77           BUDGET ERROR =          -1802.72


  PERCENT DISCREPANCY =              1.50    PERCENT DISCREPANCY =             -0.06



1
 SUMMARY VOLUMETRIC BUDGET FOR GSFLOW 
 DATE: 11 11 1980              CUMULATIVE TIME STEP:      42
 MODFLOW STRESS PERIOD      1     CURRENT TIME STEP:      42     ITERATIONS:       5

 -----------------------------------------------------------------------------------

   CUMULATIVE VOLUMES               L**3   RATES FOR THIS TIME STEP           L**3/T
   ------------------                      ------------------------

                                     IN                                         IN
                                     --                                         --
        PRECIPITATION =        7.9485D+07          PRECIPITATION =        3230734.65
           STREAMFLOW =                               STREAMFLOW =                  
     GW BOUNDARY FLOW =                         GW BOUNDARY FLOW =                  


                                    OUT                                        OUT
                                    ---                                        ---
   EVAPOTRANSPIRATION =        6.9956D+07     EVAPOTRANSPIRATION =        1696113.67
           STREAMFLOW =        9809691.39             STREAMFLOW =         250092.14
     GW BOUNDARY FLOW =                         GW BOUNDARY FLOW =                  

   INFLOWS - OUTFLOWS =        -280979.60     INFLOWS - OUTFLOWS =        1284528.84
             --------                                   --------

 TOTAL STORAGE CHANGE =       -1429257.51         STORAGE CHANGE =        1165239.78
       --------------                             --------------
         LAND SURFACE =        3266569.49           LAND SURFACE =        -110998.46
            SOIL ZONE =        8687253.14              SOIL ZONE =         695974.07
     UNSATURATED ZONE =       -2166858.60       UNSATURATED ZONE =          39518.87
       SATURATED ZONE =       -5922017.45         SATURATED ZONE =         -34496.20
                LAKES =       -5294204.09                  LAKES =         575241.50

 OVERALL BUDGET ERROR =        1148277.91           BUDGET ERROR =         119289.06

  ***WARNING, FLUX RATES OFF > 3%

  PERCENT DISCREPANCY =              1.43    PERCENT DISCREPANCY =              3.76



1
 SUMMARY VOLUMETRIC BUDGET FOR GSFLOW 
 DATE: 11 18 1980              CUMULATIVE TIME STEP:      49
 MODFLOW STRESS PERIOD      1     CURRENT TIME STEP:      49     ITERATIONS:       3

 -----------------------------------------------------------------------------------

   CUMULATIVE VOLUMES               L**3   RATES FOR THIS TIME STEP           L**3/T
   ------------------                      ------------------------

                                     IN                                         IN
                                     --                                         --
        PRECIPITATION =        8.5946D+07          PRECIPITATION =                  
           STREAMFLOW =                               STREAMFLOW =                  
     GW BOUNDARY FLOW =                         GW BOUNDARY FLOW =                  


                                    OUT                                        OUT
                                    ---                                        ---
   EVAPOTRANSPIRATION =        7.6249D+07     EVAPOTRANSPIRATION =        1510953.55
           STREAMFLOW =        1.1638D+07             STREAMFLOW =         312770.31
     GW BOUNDARY FLOW =                         GW BOUNDARY FLOW =                  

   INFLOWS - OUTFLOWS =       -1940674.77     INFLOWS - OUTFLOWS =       -1823723.87
             --------                                   --------

 TOTAL STORAGE CHANGE =       -2814294.52         STORAGE CHANGE =       -1766850.81
       --------------                             --------------
         LAND SURFACE =        3785521.16           LAND SURFACE =        -428824.73
            SOIL ZONE =        8067961.48              SOIL ZONE =        -671917.79
     UNSATURATED ZONE =       -2092772.77       UNSATURATED ZONE =          20198.30
       SATURATED ZONE =       -7155393.44         SATURATED ZONE =        -169334.88
                LAKES =       -5419610.95                  LAKES =        -516971.72

 OVERALL BUDGET ERROR =         873619.75           BUDGET ERROR =         -56873.06

  ***WARNING, FLUX RATES OFF > 3%

  PERCENT DISCREPANCY =              0.99    PERCENT DISCREPANCY =             -3.17



1
 SUMMARY VOLUMETRIC BUDGET FOR GSFLOW 
 DATE: 11 25 1980              CUMULATIVE TIME STEP:      56
 MODFLOW STRESS PERIOD      1     CURRENT TIME STEP:      56     ITERATIONS:       3

 -----------------------------------------------------------------------------------

   CUMULATIVE VOLUMES               L**3   RATES FOR THIS TIME STEP           L**3/T
   ------------------                      ------------------------

                                     IN                                         IN
                                     --                                         --
        PRECIPITATION =        8.9177D+07          PRECIPITATION =                  
           STREAMFLOW =                               STREAMFLOW =                  
     GW BOUNDARY FLOW =                         GW BOUNDARY FLOW =                  


                                    OUT                                        OUT
                                    ---                                        ---
   EVAPOTRANSPIRATION =        8.3098D+07     EVAPOTRANSPIRATION =         272926.44
           STREAMFLOW =        1.4055D+07             STREAMFLOW =         437097.81
     GW BOUNDARY FLOW =                         GW BOUNDARY FLOW =                  

   INFLOWS - OUTFLOWS =       -7975740.34     INFLOWS - OUTFLOWS =        -710024.25
             --------                                   --------

 TOTAL STORAGE CHANGE =       -8889300.19         STORAGE CHANGE =        -719704.72
       --------------                             --------------
         LAND SURFACE =        3623166.05           LAND SURFACE =         -24347.90
            SOIL ZONE =        6066902.02              SOIL ZONE =        -183920.54
     UNSATURATED ZONE =       -2103930.91       UNSATURATED ZONE =         -17405.51
       SATURATED ZONE =       -8390734.47         SATURATED ZONE =        -182924.36
                LAKES =       -8084702.89                  LAKES =        -311106.41

 OVERALL BUDGET ERROR =         913559.85           BUDGET ERROR =           9680.47


  PERCENT DISCREPANCY =              0.94    PERCENT DISCREPANCY =              1.35



1
 SUMMARY VOLUMETRIC BUDGET FOR GSFLOW 
 DATE: 12 02 1980              CUMULATIVE TIME STEP:      63
 MODFLOW STRESS PERIOD      1     CURRENT TIME STEP:      63     ITERATIONS:       4

 -----------------------------------------------------------------------------------

   CUMULATIVE VOLUMES               L**3   RATES FOR THIS TIME STEP           L**3/T
   ------------------                      ------------------------

                                     IN                                         IN
                                     --                                         --
        PRECIPITATION =        1.0846D+08          PRECIPITATION =        3198161.89
           STREAMFLOW =                               STREAMFLOW =                  
     GW BOUNDARY FLOW =                         GW BOUNDARY FLOW =                  


                                    OUT                                        OUT
                                    ---                                        ---
   EVAPOTRANSPIRATION =        9.0647D+07     EVAPOTRANSPIRATION =        1276583.85
           STREAMFLOW =        1.7318D+07             STREAMFLOW =         437214.94
     GW BOUNDARY FLOW =                         GW BOUNDARY FLOW =                  

   INFLOWS - OUTFLOWS =         499331.77     INFLOWS - OUTFLOWS =        1484363.10
             --------                                   --------

 TOTAL STORAGE CHANGE =        -870379.16         STORAGE CHANGE =        1310604.82
       --------------                             --------------
         LAND SURFACE =        6315725.60           LAND SURFACE =       -1022199.63
            SOIL ZONE =        9952184.64              SOIL ZONE =        1750870.72
     UNSATURATED ZONE =       -1954133.52       UNSATURATED ZONE =          56375.21
       SATURATED ZONE =       -9117472.34         SATURATED ZONE =         -40827.36
                LAKES =       -6066683.54                  LAKES =         566385.88

 OVERALL BUDGET ERROR =        1369710.93           BUDGET ERROR =         173758.28

  ***WARNING, FLUX RATES OFF > 3%

  PERCENT DISCREPANCY =              1.26    PERCENT DISCREPANCY =              5.58



1
 SUMMARY VOLUMETRIC BUDGET FOR GSFLOW 
 DATE: 12 09 1980              CUMULATIVE TIME STEP:      70
 MODFLOW STRESS PERIOD      1     CURRENT TIME STEP:      70     ITERATIONS:       3

 -----------------------------------------------------------------------------------

   CUMULATIVE VOLUMES               L**3   RATES FOR THIS TIME STEP           L**3/T
   ------------------                      ------------------------

                                     IN                                         IN
                                     --                                         --
        PRECIPITATION =        1.7882D+08          PRECIPITATION =                  
           STREAMFLOW =                               STREAMFLOW =                  
     GW BOUNDARY FLOW =                         GW BOUNDARY FLOW =                  


                                    OUT                                        OUT
                                    ---                                        ---
   EVAPOTRANSPIRATION =        9.2977D+07     EVAPOTRANSPIRATION =         386685.89
           STREAMFLOW =        2.0282D+07             STREAMFLOW =         420980.56
     GW BOUNDARY FLOW =                         GW BOUNDARY FLOW =                  

   INFLOWS - OUTFLOWS =        6.5564D+07     INFLOWS - OUTFLOWS =        -807666.45
             --------                                   --------

 TOTAL STORAGE CHANGE =        6.3884D+07         STORAGE CHANGE =        -827679.28
       --------------                             --------------
         LAND SURFACE =        5.0168D+07           LAND SURFACE =        -246649.42
            SOIL ZONE =        1.3110D+07              SOIL ZONE =        -140909.15
     UNSATURATED ZONE =       -1517843.11       UNSATURATED ZONE =          40079.63
       SATURATED ZONE =       -1.0087D+07         SATURATED ZONE =        -207616.41
                LAKES =        1.2211D+07                  LAKES =        -272583.94

 OVERALL BUDGET ERROR =        1679827.99           BUDGET ERROR =          20012.84


  PERCENT DISCREPANCY =              0.94    PERCENT DISCREPANCY =              2.45



1
 SUMMARY VOLUMETRIC BUDGET FOR GSFLOW 
 DATE: 12 16 1980              CUMULATIVE TIME STEP:      77
 MODFLOW STRESS PERIOD      1     CURRENT TIME STEP:      77     ITERATIONS:       3

 -----------------------------------------------------------------------------------

   CUMULATIVE VOLUMES               L**3   RATES FOR THIS TIME STEP           L**3/T
   ------------------                      ------------------------

                                     IN                                         IN
                                     --                                         --
        PRECIPITATION =        1.7882D+08          PRECIPITATION =                  
           STREAMFLOW =                               STREAMFLOW =                  
     GW BOUNDARY FLOW =                         GW BOUNDARY FLOW =                  


                                    OUT                                        OUT
                                    ---                                        ---
   EVAPOTRANSPIRATION =        9.9451D+07     EVAPOTRANSPIRATION =        1457743.94
           STREAMFLOW =        2.3263D+07             STREAMFLOW =         430698.91
     GW BOUNDARY FLOW =                         GW BOUNDARY FLOW =                  

   INFLOWS - OUTFLOWS =        5.6110D+07     INFLOWS - OUTFLOWS =       -1888442.85
             --------                                   --------

 TOTAL STORAGE CHANGE =        5.4282D+07         STORAGE CHANGE =       -1915797.79
       --------------                             --------------
         LAND SURFACE =        4.5744D+07           LAND SURFACE =       -1259208.96
            SOIL ZONE =        1.2802D+07              SOIL ZONE =         240449.59
     UNSATURATED ZONE =       -1371382.16       UNSATURATED ZONE =          20184.37
       SATURATED ZONE =       -1.1419D+07         SATURATED ZONE =        -168857.22
                LAKES =        8525737.81                  LAKES =        -748365.56

 OVERALL BUDGET ERROR =        1827925.47           BUDGET ERROR =          27354.94


  PERCENT DISCREPANCY =              1.03    PERCENT DISCREPANCY =              1.44



1
 SUMMARY VOLUMETRIC BUDGET FOR GSFLOW 
 DATE: 12 23 1980              CUMULATIVE TIME STEP:      84
 MODFLOW STRESS PERIOD      1     CURRENT TIME STEP:      84     ITERATIONS:       3

 -----------------------------------------------------------------------------------

   CUMULATIVE VOLUMES               L**3   RATES FOR THIS TIME STEP           L**3/T
   ------------------                      ------------------------

                                     IN                                         IN
                                     --                                         --
        PRECIPITATION =        1.8522D+08          PRECIPITATION =        3198161.89
           STREAMFLOW =                               STREAMFLOW =                  
     GW BOUNDARY FLOW =                         GW BOUNDARY FLOW =                  


                                    OUT                                        OUT
                                    ---                                        ---
   EVAPOTRANSPIRATION =        1.0782D+08     EVAPOTRANSPIRATION =        1096787.84
           STREAMFLOW =        2.6316D+07             STREAMFLOW =         443565.56
     GW BOUNDARY FLOW =                         GW BOUNDARY FLOW =                  

   INFLOWS - OUTFLOWS =        5.1079D+07     INFLOWS - OUTFLOWS =        1657808.50
             --------                                   --------

 TOTAL STORAGE CHANGE =        4.8970D+07         STORAGE CHANGE =        1510902.51
       --------------                             --------------
         LAND SURFACE =        4.0221D+07           LAND SURFACE =        -367739.35
            SOIL ZONE =        1.5784D+07              SOIL ZONE =        1374591.04
     UNSATURATED ZONE =       -1084651.48       UNSATURATED ZONE =          94595.57
       SATURATED ZONE =       -1.2332D+07         SATURATED ZONE =         -80683.59
                LAKES =        6381248.15                  LAKES =         490138.84

 OVERALL BUDGET ERROR =        2109462.63           BUDGET ERROR =         146905.99

  ***WARNING, FLUX RATES OFF > 3%

  PERCENT DISCREPANCY =              1.15    PERCENT DISCREPANCY =              4.70



1
 SUMMARY VOLUMETRIC BUDGET FOR GSFLOW 
 DATE: 12 30 1980              CUMULATIVE TIME STEP:      91
 MODFLOW STRESS PERIOD      1     CURRENT TIME STEP:      91     ITERATIONS:       4

 -----------------------------------------------------------------------------------

   CUMULATIVE VOLUMES               L**3   RATES FOR THIS TIME STEP           L**3/T
   ------------------                      ------------------------

                                     IN                                         IN
                                     --                                         --
        PRECIPITATION =        1.8522D+08          PRECIPITATION =                  
           STREAMFLOW =                               STREAMFLOW =                  
     GW BOUNDARY FLOW =                         GW BOUNDARY FLOW =                  


                                    OUT                                        OUT
                                    ---                                        ---
   EVAPOTRANSPIRATION =        1.1806D+08     EVAPOTRANSPIRATION =        1240476.00
           STREAMFLOW =        2.9399D+07             STREAMFLOW =         445279.78
     GW BOUNDARY FLOW =                         GW BOUNDARY FLOW =                  

   INFLOWS - OUTFLOWS =        3.7763D+07     INFLOWS - OUTFLOWS =       -1685755.78
             --------                                   --------

 TOTAL STORAGE CHANGE =        3.5455D+07         STORAGE CHANGE =       -1697497.22
       --------------                             --------------
         LAND SURFACE =        3.3989D+07           LAND SURFACE =        -561684.68
            SOIL ZONE =        1.3826D+07              SOIL ZONE =        -405548.67
     UNSATURATED ZONE =        -764440.18       UNSATURATED ZONE =          34203.23
       SATURATED ZONE =       -1.3382D+07         SATURATED ZONE =        -162616.22
                LAKES =        1787331.56                  LAKES =        -601850.88

 OVERALL BUDGET ERROR =        2307876.51           BUDGET ERROR =          11741.44


  PERCENT DISCREPANCY =              1.25    PERCENT DISCREPANCY =              0.69



1
 SUMMARY VOLUMETRIC BUDGET FOR GSFLOW 
 DATE: 01 06 1981              CUMULATIVE TIME STEP:      98
 MODFLOW STRESS PERIOD      1     CURRENT TIME STEP:      98     ITERATIONS:      14

 -----------------------------------------------------------------------------------

   CUMULATIVE VOLUMES               L**3   RATES FOR THIS TIME STEP           L**3/T
   ------------------                      ------------------------

                                     IN                                         IN
                                     --                                         --
        PRECIPITATION =        2.0923D+08          PRECIPITATION =                  
           STREAMFLOW =                               STREAMFLOW =                  
     GW BOUNDARY FLOW =                         GW BOUNDARY FLOW =                  


                                    OUT                                        OUT
                                    ---                                        ---
   EVAPOTRANSPIRATION =        1.2563D+08     EVAPOTRANSPIRATION =        1141271.67
           STREAMFLOW =        3.2519D+07             STREAMFLOW =         445540.84
     GW BOUNDARY FLOW =                         GW BOUNDARY FLOW =                  

   INFLOWS - OUTFLOWS =        5.1077D+07     INFLOWS - OUTFLOWS =       -1586812.51
             --------                                   --------

 TOTAL STORAGE CHANGE =        4.8687D+07         STORAGE CHANGE =       -1608619.13
       --------------                             --------------
         LAND SURFACE =        3.9010D+07           LAND SURFACE =        -361344.25
            SOIL ZONE =        1.7034D+07              SOIL ZONE =        -583721.28
     UNSATURATED ZONE =        -178758.17       UNSATURATED ZONE =          80744.81
       SATURATED ZONE =       -1.3939D+07         SATURATED ZONE =        -219713.16
                LAKES =        6760608.40                  LAKES =        -524585.25

 OVERALL BUDGET ERROR =        2389405.58           BUDGET ERROR =          21806.62


  PERCENT DISCREPANCY =              1.15    PERCENT DISCREPANCY =              1.36



1
 SUMMARY VOLUMETRIC BUDGET FOR GSFLOW 
 DATE: 01 13 1981              CUMULATIVE TIME STEP:     105
 MODFLOW STRESS PERIOD      1     CURRENT TIME STEP:     105     ITERATIONS:       3

 -----------------------------------------------------------------------------------

   CUMULATIVE VOLUMES               L**3   RATES FOR THIS TIME STEP           L**3/T
   ------------------                      ------------------------

                                     IN                                         IN
                                     --                                         --
        PRECIPITATION =        2.1223D+08          PRECIPITATION =                  
           STREAMFLOW =                               STREAMFLOW =                  
     GW BOUNDARY FLOW =                         GW BOUNDARY FLOW =                  


                                    OUT                                        OUT
                                    ---                                        ---
   EVAPOTRANSPIRATION =        1.3397D+08     EVAPOTRANSPIRATION =        1403790.29
           STREAMFLOW =        3.5650D+07             STREAMFLOW =         457521.16
     GW BOUNDARY FLOW =                         GW BOUNDARY FLOW =                  

   INFLOWS - OUTFLOWS =        4.2610D+07     INFLOWS - OUTFLOWS =       -1861311.44
             --------                                   --------

 TOTAL STORAGE CHANGE =        4.0104D+07         STORAGE CHANGE =       -1874873.18
       --------------                             --------------
         LAND SURFACE =        3.7468D+07           LAND SURFACE =        -472696.79
            SOIL ZONE =        1.4435D+07              SOIL ZONE =        -520680.07
     UNSATURATED ZONE =          99032.67       UNSATURATED ZONE =          23821.27
       SATURATED ZONE =       -1.5233D+07         SATURATED ZONE =        -180124.72
                LAKES =        3334857.09                  LAKES =        -725192.88

 OVERALL BUDGET ERROR =        2506405.48           BUDGET ERROR =          13561.74


  PERCENT DISCREPANCY =              1.19    PERCENT DISCREPANCY =              0.73



1
 SUMMARY VOLUMETRIC BUDGET FOR GSFLOW 
 DATE: 01 20 1981              CUMULATIVE TIME STEP:     112
 MODFLOW STRESS PERIOD      1     CURRENT TIME STEP:     112     ITERATIONS:      12

 -----------------------------------------------------------------------------------

   CUMULATIVE VOLUMES               L**3   RATES FOR THIS TIME STEP           L**3/T
   ------------------                      ------------------------

                                     IN                                         IN
                                     --                                         --
        PRECIPITATION =        2.2423D+08          PRECIPITATION =        6001392.59
           STREAMFLOW =                               STREAMFLOW =                  
     GW BOUNDARY FLOW =                         GW BOUNDARY FLOW =                  


                                    OUT                                        OUT
                                    ---                                        ---
   EVAPOTRANSPIRATION =        1.4499D+08     EVAPOTRANSPIRATION =        1812323.42
           STREAMFLOW =        3.9241D+07             STREAMFLOW =         485521.72
     GW BOUNDARY FLOW =                         GW BOUNDARY FLOW =                  

   INFLOWS - OUTFLOWS =        4.0003D+07     INFLOWS - OUTFLOWS =        3703547.45
             --------                                   --------

 TOTAL STORAGE CHANGE =        3.7300D+07         STORAGE CHANGE =        3603301.23
       --------------                             --------------
         LAND SURFACE =        3.4618D+07           LAND SURFACE =         551847.56
            SOIL ZONE =        1.6001D+07              SOIL ZONE =        1366560.01
     UNSATURATED ZONE =         535081.71       UNSATURATED ZONE =         135825.67
       SATURATED ZONE =       -1.5869D+07         SATURATED ZONE =          85794.61
                LAKES =        2015511.55                  LAKES =        1463273.38

 OVERALL BUDGET ERROR =        2702713.74           BUDGET ERROR =         100246.22


  PERCENT DISCREPANCY =              1.21    PERCENT DISCREPANCY =              1.68



1
 SUMMARY VOLUMETRIC BUDGET FOR GSFLOW 
 DATE: 01 27 1981              CUMULATIVE TIME STEP:     119
 MODFLOW STRESS PERIOD      1     CURRENT TIME STEP:     119     ITERATIONS:      15

 -----------------------------------------------------------------------------------

   CUMULATIVE VOLUMES               L**3   RATES FOR THIS TIME STEP           L**3/T
   ------------------                      ------------------------

                                     IN                                         IN
                                     --                                         --
        PRECIPITATION =        3.3525D+08          PRECIPITATION =        6.0014D+07
           STREAMFLOW =                               STREAMFLOW =                  
     GW BOUNDARY FLOW =                         GW BOUNDARY FLOW =                  


                                    OUT                                        OUT
                                    ---                                        ---
   EVAPOTRANSPIRATION =        1.5408D+08     EVAPOTRANSPIRATION =         663125.65
           STREAMFLOW =        4.1752D+07             STREAMFLOW =         345811.31
     GW BOUNDARY FLOW =                         GW BOUNDARY FLOW =                  

   INFLOWS - OUTFLOWS =        1.3943D+08     INFLOWS - OUTFLOWS =        5.9005D+07
             --------                                   --------

 TOTAL STORAGE CHANGE =        1.3659D+08         STORAGE CHANGE =        5.8971D+07
       --------------                             --------------
         LAND SURFACE =        1.0380D+08           LAND SURFACE =        4.0704D+07
            SOIL ZONE =        1.8084D+07              SOIL ZONE =        1755784.33
     UNSATURATED ZONE =        1214316.94       UNSATURATED ZONE =         120718.83
       SATURATED ZONE =       -1.6442D+07         SATURATED ZONE =          78847.48
                LAKES =        2.9934D+07                  LAKES =        1.6311D+07

 OVERALL BUDGET ERROR =        2838596.95           BUDGET ERROR =          34277.32


  PERCENT DISCREPANCY =              0.85    PERCENT DISCREPANCY =              0.06



1
 SUMMARY VOLUMETRIC BUDGET FOR GSFLOW 
 DATE: 02 03 1981              CUMULATIVE TIME STEP:     126
 MODFLOW STRESS PERIOD      1     CURRENT TIME STEP:     126     ITERATIONS:      21

 -----------------------------------------------------------------------------------

   CUMULATIVE VOLUMES               L**3   RATES FOR THIS TIME STEP           L**3/T
   ------------------                      ------------------------

                                     IN                                         IN
                                     --                                         --
        PRECIPITATION =        4.0137D+08          PRECIPITATION =                  
           STREAMFLOW =                               STREAMFLOW =                  
     GW BOUNDARY FLOW =                         GW BOUNDARY FLOW =                  


                                    OUT                                        OUT
                                    ---                                        ---
   EVAPOTRANSPIRATION =        1.5769D+08     EVAPOTRANSPIRATION =         897750.28
           STREAMFLOW =        4.4232D+07             STREAMFLOW =         354891.78
     GW BOUNDARY FLOW =                         GW BOUNDARY FLOW =                  

   INFLOWS - OUTFLOWS =        1.9944D+08     INFLOWS - OUTFLOWS =       -1252642.06
             --------                                   --------

 TOTAL STORAGE CHANGE =        1.9684D+08         STORAGE CHANGE =       -1275540.44
       --------------                             --------------
         LAND SURFACE =        1.5000D+08           LAND SURFACE =        -514046.87
            SOIL ZONE =        1.7078D+07              SOIL ZONE =        -141718.74
     UNSATURATED ZONE =        1638420.15       UNSATURATED ZONE =          30832.33
       SATURATED ZONE =       -1.7679D+07         SATURATED ZONE =        -175647.56
                LAKES =        4.5810D+07                  LAKES =        -474959.59

 OVERALL BUDGET ERROR =        2595406.81           BUDGET ERROR =          22898.38


  PERCENT DISCREPANCY =              0.65    PERCENT DISCREPANCY =              1.81



1
 SUMMARY VOLUMETRIC BUDGET FOR GSFLOW 
 DATE: 02 10 1981              CUMULATIVE TIME STEP:     133
 MODFLOW STRESS PERIOD      1     CURRENT TIME STEP:     133     ITERATIONS:       3

 -----------------------------------------------------------------------------------

   CUMULATIVE VOLUMES               L**3   RATES FOR THIS TIME STEP           L**3/T
   ------------------                      ------------------------

                                     IN                                         IN
                                     --                                         --
        PRECIPITATION =        4.1375D+08          PRECIPITATION =        3095932.43
           STREAMFLOW =                               STREAMFLOW =                  
     GW BOUNDARY FLOW =                         GW BOUNDARY FLOW =                  


                                    OUT                                        OUT
                                    ---                                        ---
   EVAPOTRANSPIRATION =        1.6309D+08     EVAPOTRANSPIRATION =         577901.32
           STREAMFLOW =        4.6626D+07             STREAMFLOW =         340304.91
     GW BOUNDARY FLOW =                         GW BOUNDARY FLOW =                  

   INFLOWS - OUTFLOWS =        2.0403D+08     INFLOWS - OUTFLOWS =        2177726.21
             --------                                   --------

 TOTAL STORAGE CHANGE =        2.0131D+08         STORAGE CHANGE =        2148257.97
       --------------                             --------------
         LAND SURFACE =        1.5542D+08           LAND SURFACE =        1647975.59
            SOIL ZONE =        1.6990D+07              SOIL ZONE =         193393.36
     UNSATURATED ZONE =        1715621.16       UNSATURATED ZONE =           8375.80
       SATURATED ZONE =       -1.8785D+07         SATURATED ZONE =        -150466.25
                LAKES =        4.5974D+07                  LAKES =         448979.47

 OVERALL BUDGET ERROR =        2719460.11           BUDGET ERROR =          29468.24


  PERCENT DISCREPANCY =              0.66    PERCENT DISCREPANCY =              0.96



1
 SUMMARY VOLUMETRIC BUDGET FOR GSFLOW 
 DATE: 02 17 1981              CUMULATIVE TIME STEP:     140
 MODFLOW STRESS PERIOD      1     CURRENT TIME STEP:     140     ITERATIONS:      32

 -----------------------------------------------------------------------------------

   CUMULATIVE VOLUMES               L**3   RATES FOR THIS TIME STEP           L**3/T
   ------------------                      ------------------------

                                     IN                                         IN
                                     --                                         --
        PRECIPITATION =        4.6328D+08          PRECIPITATION =                  
           STREAMFLOW =                               STREAMFLOW =                  
     GW BOUNDARY FLOW =                         GW BOUNDARY FLOW =                  


                                    OUT                                        OUT
                                    ---                                        ---
   EVAPOTRANSPIRATION =        1.7439D+08     EVAPOTRANSPIRATION =        2612670.62
           STREAMFLOW =        4.8976D+07             STREAMFLOW =         285389.16
     GW BOUNDARY FLOW =                         GW BOUNDARY FLOW =                  

   INFLOWS - OUTFLOWS =        2.3992D+08     INFLOWS - OUTFLOWS =       -2898059.77
             --------                                   --------

 TOTAL STORAGE CHANGE =        2.3662D+08         STORAGE CHANGE =       -2948520.27
       --------------                             --------------
         LAND SURFACE =        1.6983D+08           LAND SURFACE =       -2316327.40
            SOIL ZONE =        2.3852D+07              SOIL ZONE =         -58617.14
     UNSATURATED ZONE =        2750548.59       UNSATURATED ZONE =         187681.96
       SATURATED ZONE =       -1.8875D+07         SATURATED ZONE =        -126119.05
                LAKES =        5.9061D+07                  LAKES =        -635138.62

 OVERALL BUDGET ERROR =        3295939.67           BUDGET ERROR =          50460.49


  PERCENT DISCREPANCY =              0.71    PERCENT DISCREPANCY =              1.73



1
 SUMMARY VOLUMETRIC BUDGET FOR GSFLOW 
 DATE: 02 24 1981              CUMULATIVE TIME STEP:     147
 MODFLOW STRESS PERIOD      1     CURRENT TIME STEP:     147     ITERATIONS:      15

 -----------------------------------------------------------------------------------

   CUMULATIVE VOLUMES               L**3   RATES FOR THIS TIME STEP           L**3/T
   ------------------                      ------------------------

                                     IN                                         IN
                                     --                                         --
        PRECIPITATION =        4.8805D+08          PRECIPITATION =        1.8576D+07
           STREAMFLOW =                               STREAMFLOW =                  
     GW BOUNDARY FLOW =                         GW BOUNDARY FLOW =                  


                                    OUT                                        OUT
                                    ---                                        ---
   EVAPOTRANSPIRATION =        1.8775D+08     EVAPOTRANSPIRATION =        1355072.88
           STREAMFLOW =        5.0060D+07             STREAMFLOW =         143123.89
     GW BOUNDARY FLOW =                         GW BOUNDARY FLOW =                  

   INFLOWS - OUTFLOWS =        2.5024D+08     INFLOWS - OUTFLOWS =        1.7077D+07
             --------                                   --------

 TOTAL STORAGE CHANGE =        2.4652D+08         STORAGE CHANGE =        1.7040D+07
       --------------                             --------------
         LAND SURFACE =        1.6962D+08           LAND SURFACE =        1.0824D+07
            SOIL ZONE =        2.6085D+07              SOIL ZONE =         470203.37
     UNSATURATED ZONE =        1574326.27       UNSATURATED ZONE =         343631.00
       SATURATED ZONE =       -1.7052D+07         SATURATED ZONE =          49044.62
                LAKES =        6.6296D+07                  LAKES =        5353536.50

 OVERALL BUDGET ERROR =        3714391.95           BUDGET ERROR =          37242.76


  PERCENT DISCREPANCY =              0.76    PERCENT DISCREPANCY =              0.20



1
 SUMMARY VOLUMETRIC BUDGET FOR GSFLOW 
 DATE: 03 03 1981              CUMULATIVE TIME STEP:     154
 MODFLOW STRESS PERIOD      1     CURRENT TIME STEP:     154     ITERATIONS:      16

 -----------------------------------------------------------------------------------

   CUMULATIVE VOLUMES               L**3   RATES FOR THIS TIME STEP           L**3/T
   ------------------                      ------------------------

                                     IN                                         IN
                                     --                                         --
        PRECIPITATION =        5.0056D+08          PRECIPITATION =                  
           STREAMFLOW =                               STREAMFLOW =                  
     GW BOUNDARY FLOW =                         GW BOUNDARY FLOW =                  


                                    OUT                                        OUT
                                    ---                                        ---
   EVAPOTRANSPIRATION =        1.9627D+08     EVAPOTRANSPIRATION =        2160815.59
           STREAMFLOW =        5.1106D+07             STREAMFLOW =         161574.77
     GW BOUNDARY FLOW =                         GW BOUNDARY FLOW =                  

   INFLOWS - OUTFLOWS =        2.5318D+08     INFLOWS - OUTFLOWS =       -2322390.36
             --------                                   --------

 TOTAL STORAGE CHANGE =        2.4932D+08         STORAGE CHANGE =       -2340894.84
       --------------                             --------------
         LAND SURFACE =        1.7232D+08           LAND SURFACE =       -1112915.94
            SOIL ZONE =        2.4196D+07              SOIL ZONE =        -374941.24
     UNSATURATED ZONE =        2541939.14       UNSATURATED ZONE =          66265.23
       SATURATED ZONE =       -1.8287D+07         SATURATED ZONE =        -179264.58
                LAKES =        6.8546D+07                  LAKES =        -740038.31

 OVERALL BUDGET ERROR =        3864714.05           BUDGET ERROR =          18504.49


  PERCENT DISCREPANCY =              0.78    PERCENT DISCREPANCY =              0.79



1
 SUMMARY VOLUMETRIC BUDGET FOR GSFLOW 
 DATE: 03 10 1981              CUMULATIVE TIME STEP:     161
 MODFLOW STRESS PERIOD      1     CURRENT TIME STEP:     161     ITERATIONS:      42

 -----------------------------------------------------------------------------------

   CUMULATIVE VOLUMES               L**3   RATES FOR THIS TIME STEP           L**3/T
   ------------------                      ------------------------

                                     IN                                         IN
                                     --                                         --
        PRECIPITATION =        5.0378D+08          PRECIPITATION =        3221591.34
           STREAMFLOW =                               STREAMFLOW =                  
     GW BOUNDARY FLOW =                         GW BOUNDARY FLOW =                  


                                    OUT                                        OUT
                                    ---                                        ---
   EVAPOTRANSPIRATION =        2.1335D+08     EVAPOTRANSPIRATION =        1910973.09
           STREAMFLOW =        5.2250D+07             STREAMFLOW =         163871.41
     GW BOUNDARY FLOW =                         GW BOUNDARY FLOW =                  

   INFLOWS - OUTFLOWS =        2.3818D+08     INFLOWS - OUTFLOWS =        1146746.84
             --------                                   --------

 TOTAL STORAGE CHANGE =        2.3411D+08         STORAGE CHANGE =        1107549.61
       --------------                             --------------
         LAND SURFACE =        1.5960D+08           LAND SURFACE =       -1847354.55
            SOIL ZONE =        2.4741D+07              SOIL ZONE =        1269032.24
     UNSATURATED ZONE =        3006319.41       UNSATURATED ZONE =         159123.83
       SATURATED ZONE =       -1.8807D+07         SATURATED ZONE =         136807.72
                LAKES =        6.5569D+07                  LAKES =        1389940.38

 OVERALL BUDGET ERROR =        4075063.54           BUDGET ERROR =          39197.22


  PERCENT DISCREPANCY =              0.81    PERCENT DISCREPANCY =              1.22



1
 SUMMARY VOLUMETRIC BUDGET FOR GSFLOW 
 DATE: 03 17 1981              CUMULATIVE TIME STEP:     168
 MODFLOW STRESS PERIOD      1     CURRENT TIME STEP:     168     ITERATIONS:      33

 -----------------------------------------------------------------------------------

   CUMULATIVE VOLUMES               L**3   RATES FOR THIS TIME STEP           L**3/T
   ------------------                      ------------------------

                                     IN                                         IN
                                     --                                         --
        PRECIPITATION =        5.1345D+08          PRECIPITATION =        3221591.34
           STREAMFLOW =                               STREAMFLOW =                  
     GW BOUNDARY FLOW =                         GW BOUNDARY FLOW =                  


                                    OUT                                        OUT
                                    ---                                        ---
   EVAPOTRANSPIRATION =        2.2791D+08     EVAPOTRANSPIRATION =        1042313.79
           STREAMFLOW =        5.3446D+07             STREAMFLOW =         174561.34
     GW BOUNDARY FLOW =                         GW BOUNDARY FLOW =                  

   INFLOWS - OUTFLOWS =        2.3209D+08     INFLOWS - OUTFLOWS =        2004716.20
             --------                                   --------

 TOTAL STORAGE CHANGE =        2.2789D+08         STORAGE CHANGE =        1986057.27
       --------------                             --------------
         LAND SURFACE =        1.5550D+08           LAND SURFACE =        1505005.36
            SOIL ZONE =        2.3807D+07              SOIL ZONE =          24642.01
     UNSATURATED ZONE =        3600681.32       UNSATURATED ZONE =        -103368.16
       SATURATED ZONE =       -1.9523D+07         SATURATED ZONE =           2037.88
                LAKES =        6.4508D+07                  LAKES =         557740.19

 OVERALL BUDGET ERROR =        4197620.51           BUDGET ERROR =          18658.93


  PERCENT DISCREPANCY =              0.82    PERCENT DISCREPANCY =              0.58



1
 SUMMARY VOLUMETRIC BUDGET FOR GSFLOW 
 DATE: 03 24 1981              CUMULATIVE TIME STEP:     175
 MODFLOW STRESS PERIOD      1     CURRENT TIME STEP:     175     ITERATIONS:      21

 -----------------------------------------------------------------------------------

   CUMULATIVE VOLUMES               L**3   RATES FOR THIS TIME STEP           L**3/T
   ------------------                      ------------------------

                                     IN                                         IN
                                     --                                         --
        PRECIPITATION =        5.7144D+08          PRECIPITATION =        6443182.67
           STREAMFLOW =                               STREAMFLOW =                  
     GW BOUNDARY FLOW =                         GW BOUNDARY FLOW =                  


                                    OUT                                        OUT
                                    ---                                        ---
   EVAPOTRANSPIRATION =        2.4182D+08     EVAPOTRANSPIRATION =        1710116.18
           STREAMFLOW =        5.4582D+07             STREAMFLOW =         164598.69
     GW BOUNDARY FLOW =                         GW BOUNDARY FLOW =                  

   INFLOWS - OUTFLOWS =        2.7503D+08     INFLOWS - OUTFLOWS =        4568467.81
             --------                                   --------

 TOTAL STORAGE CHANGE =        2.7057D+08         STORAGE CHANGE =        4539680.77
       --------------                             --------------
         LAND SURFACE =        1.8290D+08           LAND SURFACE =        1419532.73
            SOIL ZONE =        2.6105D+07              SOIL ZONE =         786878.21
     UNSATURATED ZONE =        4522932.55       UNSATURATED ZONE =         179677.39
       SATURATED ZONE =       -1.9959D+07         SATURATED ZONE =          91246.69
                LAKES =        7.7007D+07                  LAKES =        2062345.75

 OVERALL BUDGET ERROR =        4462545.25           BUDGET ERROR =          28787.04


  PERCENT DISCREPANCY =              0.78    PERCENT DISCREPANCY =              0.45



1
 SUMMARY VOLUMETRIC BUDGET FOR GSFLOW 
 DATE: 03 31 1981              CUMULATIVE TIME STEP:     182
 MODFLOW STRESS PERIOD      1     CURRENT TIME STEP:     182     ITERATIONS:      28

 -----------------------------------------------------------------------------------

   CUMULATIVE VOLUMES               L**3   RATES FOR THIS TIME STEP           L**3/T
   ------------------                      ------------------------

                                     IN                                         IN
                                     --                                         --
        PRECIPITATION =        6.3587D+08          PRECIPITATION =        6443182.67
           STREAMFLOW =                               STREAMFLOW =                  
     GW BOUNDARY FLOW =                         GW BOUNDARY FLOW =                  


                                    OUT                                        OUT
                                    ---                                        ---
   EVAPOTRANSPIRATION =        2.5632D+08     EVAPOTRANSPIRATION =        1135784.34
           STREAMFLOW =        5.5754D+07             STREAMFLOW =         154066.56
     GW BOUNDARY FLOW =                         GW BOUNDARY FLOW =                  

   INFLOWS - OUTFLOWS =        3.2379D+08     INFLOWS - OUTFLOWS =        5153331.77
             --------                                   --------

 TOTAL STORAGE CHANGE =        3.1937D+08         STORAGE CHANGE =        5130985.93
       --------------                             --------------
         LAND SURFACE =        2.0791D+08           LAND SURFACE =        2593093.39
            SOIL ZONE =        2.7748D+07              SOIL ZONE =         496518.41
     UNSATURATED ZONE =        1394118.96       UNSATURATED ZONE =         179818.24
       SATURATED ZONE =       -1.6417D+07         SATURATED ZONE =         -32635.98
                LAKES =        9.8734D+07                  LAKES =        1894191.88

 OVERALL BUDGET ERROR =        4421232.34           BUDGET ERROR =          22345.85


  PERCENT DISCREPANCY =              0.70    PERCENT DISCREPANCY =              0.35



1
 SUMMARY VOLUMETRIC BUDGET FOR GSFLOW 
 DATE: 04 07 1981              CUMULATIVE TIME STEP:     189
 MODFLOW STRESS PERIOD      1     CURRENT TIME STEP:     189     ITERATIONS:      49

 -----------------------------------------------------------------------------------

   CUMULATIVE VOLUMES               L**3   RATES FOR THIS TIME STEP           L**3/T
   ------------------                      ------------------------

                                     IN                                         IN
                                     --                                         --
        PRECIPITATION =        6.5328D+08          PRECIPITATION =                  
           STREAMFLOW =                               STREAMFLOW =                  
     GW BOUNDARY FLOW =                         GW BOUNDARY FLOW =                  


                                    OUT                                        OUT
                                    ---                                        ---
   EVAPOTRANSPIRATION =        2.7945D+08     EVAPOTRANSPIRATION =        4247442.68
           STREAMFLOW =        5.6884D+07             STREAMFLOW =         203682.59
     GW BOUNDARY FLOW =                         GW BOUNDARY FLOW =                  

   INFLOWS - OUTFLOWS =        3.1695D+08     INFLOWS - OUTFLOWS =       -4451125.28
             --------                                   --------

 TOTAL STORAGE CHANGE =        3.1231D+08         STORAGE CHANGE =       -4470455.74
       --------------                             --------------
         LAND SURFACE =        1.8629D+08           LAND SURFACE =       -6808850.16
            SOIL ZONE =        2.8286D+07              SOIL ZONE =         -15696.97
     UNSATURATED ZONE =        3332815.73       UNSATURATED ZONE =         340092.13
       SATURATED ZONE =       -1.5124D+07         SATURATED ZONE =         293384.62
                LAKES =        1.0952D+08                  LAKES =        1720614.62

 OVERALL BUDGET ERROR =        4638003.39           BUDGET ERROR =          19330.46


  PERCENT DISCREPANCY =              0.71    PERCENT DISCREPANCY =              0.43



1
 SUMMARY VOLUMETRIC BUDGET FOR GSFLOW 
 DATE: 04 14 1981              CUMULATIVE TIME STEP:     196
 MODFLOW STRESS PERIOD      1     CURRENT TIME STEP:     196     ITERATIONS:      37

 -----------------------------------------------------------------------------------

   CUMULATIVE VOLUMES               L**3   RATES FOR THIS TIME STEP           L**3/T
   ------------------                      ------------------------

                                     IN                                         IN
                                     --                                         --
        PRECIPITATION =        6.5328D+08          PRECIPITATION =                  
           STREAMFLOW =                               STREAMFLOW =                  
     GW BOUNDARY FLOW =                         GW BOUNDARY FLOW =                  


                                    OUT                                        OUT
                                    ---                                        ---
   EVAPOTRANSPIRATION =        3.0928D+08     EVAPOTRANSPIRATION =        5171066.51
           STREAMFLOW =        5.8130D+07             STREAMFLOW =         172000.22
     GW BOUNDARY FLOW =                         GW BOUNDARY FLOW =                  

   INFLOWS - OUTFLOWS =        2.8587D+08     INFLOWS - OUTFLOWS =       -5343066.73
             --------                                   --------

 TOTAL STORAGE CHANGE =        2.8106D+08         STORAGE CHANGE =       -5360892.68
       --------------                             --------------
         LAND SURFACE =        1.4105D+08           LAND SURFACE =       -7353372.32
            SOIL ZONE =        2.3831D+07              SOIL ZONE =        -908162.28
     UNSATURATED ZONE =        5329626.76       UNSATURATED ZONE =         248323.48
       SATURATED ZONE =       -1.3471D+07         SATURATED ZONE =         268721.19
                LAKES =        1.2432D+08                  LAKES =        2383597.25

 OVERALL BUDGET ERROR =        4818549.07           BUDGET ERROR =          17825.95


  PERCENT DISCREPANCY =              0.74    PERCENT DISCREPANCY =              0.33



1
 SUMMARY VOLUMETRIC BUDGET FOR GSFLOW 
 DATE: 04 21 1981              CUMULATIVE TIME STEP:     203
 MODFLOW STRESS PERIOD      1     CURRENT TIME STEP:     203     ITERATIONS:      53

 -----------------------------------------------------------------------------------

   CUMULATIVE VOLUMES               L**3   RATES FOR THIS TIME STEP           L**3/T
   ------------------                      ------------------------

                                     IN                                         IN
                                     --                                         --
        PRECIPITATION =        6.7418D+08          PRECIPITATION =                  
           STREAMFLOW =                               STREAMFLOW =                  
     GW BOUNDARY FLOW =                         GW BOUNDARY FLOW =                  


                                    OUT                                        OUT
                                    ---                                        ---
   EVAPOTRANSPIRATION =        3.3938D+08     EVAPOTRANSPIRATION =        5676927.24
           STREAMFLOW =        5.9345D+07             STREAMFLOW =         169579.17
     GW BOUNDARY FLOW =                         GW BOUNDARY FLOW =                  

   INFLOWS - OUTFLOWS =        2.7546D+08     INFLOWS - OUTFLOWS =       -5846506.41
             --------                                   --------

 TOTAL STORAGE CHANGE =        2.7073D+08         STORAGE CHANGE =       -5850359.61
       --------------                             --------------
         LAND SURFACE =        1.1854D+08           LAND SURFACE =       -3228226.29
            SOIL ZONE =        2.1962D+07              SOIL ZONE =       -2074139.67
     UNSATURATED ZONE =        6431327.10       UNSATURATED ZONE =          91358.57
       SATURATED ZONE =       -1.3273D+07         SATURATED ZONE =         -37238.84
                LAKES =        1.3707D+08                  LAKES =        -602113.38

 OVERALL BUDGET ERROR =        4730018.73           BUDGET ERROR =           3853.20


  PERCENT DISCREPANCY =              0.70    PERCENT DISCREPANCY =              0.07



1
 SUMMARY VOLUMETRIC BUDGET FOR GSFLOW 
 DATE: 04 28 1981              CUMULATIVE TIME STEP:     210
 MODFLOW STRESS PERIOD      1     CURRENT TIME STEP:     210     ITERATIONS:      47

 -----------------------------------------------------------------------------------

   CUMULATIVE VOLUMES               L**3   RATES FOR THIS TIME STEP           L**3/T
   ------------------                      ------------------------

                                     IN                                         IN
                                     --                                         --
        PRECIPITATION =        6.8114D+08          PRECIPITATION =                  
           STREAMFLOW =                               STREAMFLOW =                  
     GW BOUNDARY FLOW =                         GW BOUNDARY FLOW =                  


                                    OUT                                        OUT
                                    ---                                        ---
   EVAPOTRANSPIRATION =        3.8078D+08     EVAPOTRANSPIRATION =        5632412.02
           STREAMFLOW =        6.0557D+07             STREAMFLOW =         169029.37
     GW BOUNDARY FLOW =                         GW BOUNDARY FLOW =                  

   INFLOWS - OUTFLOWS =        2.3981D+08     INFLOWS - OUTFLOWS =       -5801441.39
             --------                                   --------

 TOTAL STORAGE CHANGE =        2.3507D+08         STORAGE CHANGE =       -5801998.21
       --------------                             --------------
         LAND SURFACE =        9.3061D+07           LAND SURFACE =       -4036144.09
            SOIL ZONE =        1.1933D+07              SOIL ZONE =       -1673459.54
     UNSATURATED ZONE =        6507591.90       UNSATURATED ZONE =         -36538.98
       SATURATED ZONE =       -1.3130D+07         SATURATED ZONE =         113314.31
                LAKES =        1.3669D+08                  LAKES =        -169169.91

 OVERALL BUDGET ERROR =        4744410.54           BUDGET ERROR =            556.82


  PERCENT DISCREPANCY =              0.70    PERCENT DISCREPANCY =              0.01



1
 SUMMARY VOLUMETRIC BUDGET FOR GSFLOW 
 DATE: 05 05 1981              CUMULATIVE TIME STEP:     217
 MODFLOW STRESS PERIOD      1     CURRENT TIME STEP:     217     ITERATIONS:      70

 -----------------------------------------------------------------------------------

   CUMULATIVE VOLUMES               L**3   RATES FOR THIS TIME STEP           L**3/T
   ------------------                      ------------------------

                                     IN                                         IN
                                     --                                         --
        PRECIPITATION =        6.8811D+08          PRECIPITATION =                  
           STREAMFLOW =                               STREAMFLOW =                  
     GW BOUNDARY FLOW =                         GW BOUNDARY FLOW =                  


                                    OUT                                        OUT
                                    ---                                        ---
   EVAPOTRANSPIRATION =        4.1880D+08     EVAPOTRANSPIRATION =        3777391.00
           STREAMFLOW =        6.1775D+07             STREAMFLOW =         173796.00
     GW BOUNDARY FLOW =                         GW BOUNDARY FLOW =                  

   INFLOWS - OUTFLOWS =        2.0753D+08     INFLOWS - OUTFLOWS =       -3951187.00
             --------                                   --------

 TOTAL STORAGE CHANGE =        2.0279D+08         STORAGE CHANGE =       -3946843.50
       --------------                             --------------
         LAND SURFACE =        6.7797D+07           LAND SURFACE =       -2954584.90
            SOIL ZONE =        5262922.45              SOIL ZONE =        -923662.18
     UNSATURATED ZONE =        5141061.95       UNSATURATED ZONE =         -70809.20
       SATURATED ZONE =       -1.2197D+07         SATURATED ZONE =         -12873.02
                LAKES =        1.3679D+08                  LAKES =          15085.79

 OVERALL BUDGET ERROR =        4739799.43           BUDGET ERROR =          -4343.49


  PERCENT DISCREPANCY =              0.69    PERCENT DISCREPANCY =             -0.11



1
 SUMMARY VOLUMETRIC BUDGET FOR GSFLOW 
 DATE: 05 12 1981              CUMULATIVE TIME STEP:     224
 MODFLOW STRESS PERIOD      1     CURRENT TIME STEP:     224     ITERATIONS:      62

 -----------------------------------------------------------------------------------

   CUMULATIVE VOLUMES               L**3   RATES FOR THIS TIME STEP           L**3/T
   ------------------                      ------------------------

                                     IN                                         IN
                                     --                                         --
        PRECIPITATION =        6.8811D+08          PRECIPITATION =                  
           STREAMFLOW =                               STREAMFLOW =                  
     GW BOUNDARY FLOW =                         GW BOUNDARY FLOW =                  


                                    OUT                                        OUT
                                    ---                                        ---
   EVAPOTRANSPIRATION =        4.4717D+08     EVAPOTRANSPIRATION =        4487858.22
           STREAMFLOW =        6.2972D+07             STREAMFLOW =         168853.17
     GW BOUNDARY FLOW =                         GW BOUNDARY FLOW =                  

   INFLOWS - OUTFLOWS =        1.7797D+08     INFLOWS - OUTFLOWS =       -4656711.39
             --------                                   --------

 TOTAL STORAGE CHANGE =        1.7324D+08         STORAGE CHANGE =       -4654580.96
       --------------                             --------------
         LAND SURFACE =        4.4652D+07           LAND SURFACE =       -3401591.14
            SOIL ZONE =       -1374830.07              SOIL ZONE =        -950617.92
     UNSATURATED ZONE =        3106431.87       UNSATURATED ZONE =        -839108.36
       SATURATED ZONE =       -1.0944D+07         SATURATED ZONE =         540193.25
                LAKES =        1.3780D+08                  LAKES =          -3456.78

 OVERALL BUDGET ERROR =        4735494.54           BUDGET ERROR =          -2130.43


  PERCENT DISCREPANCY =              0.69    PERCENT DISCREPANCY =             -0.05



1
 SUMMARY VOLUMETRIC BUDGET FOR GSFLOW 
 DATE: 05 19 1981              CUMULATIVE TIME STEP:     231
 MODFLOW STRESS PERIOD      1     CURRENT TIME STEP:     231     ITERATIONS:      42

 -----------------------------------------------------------------------------------

   CUMULATIVE VOLUMES               L**3   RATES FOR THIS TIME STEP           L**3/T
   ------------------                      ------------------------

                                     IN                                         IN
                                     --                                         --
        PRECIPITATION =        7.4671D+08          PRECIPITATION =        3447112.78
           STREAMFLOW =                               STREAMFLOW =                  
     GW BOUNDARY FLOW =                         GW BOUNDARY FLOW =                  


                                    OUT                                        OUT
                                    ---                                        ---
   EVAPOTRANSPIRATION =        4.6526D+08     EVAPOTRANSPIRATION =        1758865.49
           STREAMFLOW =        6.4162D+07             STREAMFLOW =         172527.06
     GW BOUNDARY FLOW =                         GW BOUNDARY FLOW =                  

   INFLOWS - OUTFLOWS =        2.1729D+08     INFLOWS - OUTFLOWS =        1515720.23
             --------                                   --------

 TOTAL STORAGE CHANGE =        2.1278D+08         STORAGE CHANGE =        1510476.62
       --------------                             --------------
         LAND SURFACE =        4.8302D+07           LAND SURFACE =       -3469349.29
            SOIL ZONE =        1.0105D+07              SOIL ZONE =        2135670.59
     UNSATURATED ZONE =        2923841.91       UNSATURATED ZONE =         -17007.08
       SATURATED ZONE =       -1.0484D+07         SATURATED ZONE =          73286.64
                LAKES =        1.6193D+08                  LAKES =        2787875.75

 OVERALL BUDGET ERROR =        4508509.03           BUDGET ERROR =           5243.61


  PERCENT DISCREPANCY =              0.61    PERCENT DISCREPANCY =              0.15



1
 SUMMARY VOLUMETRIC BUDGET FOR GSFLOW 
 DATE: 05 26 1981              CUMULATIVE TIME STEP:     238
 MODFLOW STRESS PERIOD      1     CURRENT TIME STEP:     238     ITERATIONS:      16

 -----------------------------------------------------------------------------------

   CUMULATIVE VOLUMES               L**3   RATES FOR THIS TIME STEP           L**3/T
   ------------------                      ------------------------

                                     IN                                         IN
                                     --                                         --
        PRECIPITATION =        7.7429D+08          PRECIPITATION =        1.7236D+07
           STREAMFLOW =                               STREAMFLOW =                  
     GW BOUNDARY FLOW =                         GW BOUNDARY FLOW =                  


                                    OUT                                        OUT
                                    ---                                        ---
   EVAPOTRANSPIRATION =        4.9678D+08     EVAPOTRANSPIRATION =        2648229.84
           STREAMFLOW =        6.5363D+07             STREAMFLOW =         180466.05
     GW BOUNDARY FLOW =                         GW BOUNDARY FLOW =                  

   INFLOWS - OUTFLOWS =        2.1214D+08     INFLOWS - OUTFLOWS =        1.4407D+07
             --------                                   --------

 TOTAL STORAGE CHANGE =        2.0734D+08         STORAGE CHANGE =        1.4243D+07
       --------------                             --------------
         LAND SURFACE =        3.1890D+07           LAND SURFACE =        -275022.79
            SOIL ZONE =        8675240.07              SOIL ZONE =        4719471.27
     UNSATURATED ZONE =        2760655.20       UNSATURATED ZONE =          12770.90
       SATURATED ZONE =       -1.0019D+07         SATURATED ZONE =         548202.62
                LAKES =        1.7404D+08                  LAKES =        9237724.00

 OVERALL BUDGET ERROR =        4799884.88           BUDGET ERROR =         163721.76


  PERCENT DISCREPANCY =              0.62    PERCENT DISCREPANCY =              0.95



1
 SUMMARY VOLUMETRIC BUDGET FOR GSFLOW 
 DATE: 06 02 1981              CUMULATIVE TIME STEP:     245
 MODFLOW STRESS PERIOD      1     CURRENT TIME STEP:     245     ITERATIONS:      65

 -----------------------------------------------------------------------------------

   CUMULATIVE VOLUMES               L**3   RATES FOR THIS TIME STEP           L**3/T
   ------------------                      ------------------------

                                     IN                                         IN
                                     --                                         --
        PRECIPITATION =        7.7429D+08          PRECIPITATION =                  
           STREAMFLOW =                               STREAMFLOW =                  
     GW BOUNDARY FLOW =                         GW BOUNDARY FLOW =                  


                                    OUT                                        OUT
                                    ---                                        ---
   EVAPOTRANSPIRATION =        5.3771D+08     EVAPOTRANSPIRATION =        5801488.66
           STREAMFLOW =        6.6583D+07             STREAMFLOW =         178725.95
     GW BOUNDARY FLOW =                         GW BOUNDARY FLOW =                  

   INFLOWS - OUTFLOWS =        1.7000D+08     INFLOWS - OUTFLOWS =       -5980214.61
             --------                                   --------

 TOTAL STORAGE CHANGE =        1.6521D+08         STORAGE CHANGE =       -5974451.74
       --------------                             --------------
         LAND SURFACE =        1.9162D+07           LAND SURFACE =       -1524432.06
            SOIL ZONE =       -7602439.54              SOIL ZONE =       -1965461.22
     UNSATURATED ZONE =       -1831944.21       UNSATURATED ZONE =        -125059.46
       SATURATED ZONE =       -8456224.36         SATURATED ZONE =        -222536.75
                LAKES =        1.6394D+08                  LAKES =       -2136962.25

 OVERALL BUDGET ERROR =        4784893.11           BUDGET ERROR =          -5762.87


  PERCENT DISCREPANCY =              0.62    PERCENT DISCREPANCY =             -0.10



1
 SUMMARY VOLUMETRIC BUDGET FOR GSFLOW 
 DATE: 06 09 1981              CUMULATIVE TIME STEP:     252
 MODFLOW STRESS PERIOD      1     CURRENT TIME STEP:     252     ITERATIONS:      49

 -----------------------------------------------------------------------------------

   CUMULATIVE VOLUMES               L**3   RATES FOR THIS TIME STEP           L**3/T
   ------------------                      ------------------------

                                     IN                                         IN
                                     --                                         --
        PRECIPITATION =        7.7752D+08          PRECIPITATION =                  
           STREAMFLOW =                               STREAMFLOW =                  
     GW BOUNDARY FLOW =                         GW BOUNDARY FLOW =                  


                                    OUT                                        OUT
                                    ---                                        ---
   EVAPOTRANSPIRATION =        5.7453D+08     EVAPOTRANSPIRATION =        5412687.38
           STREAMFLOW =        6.7827D+07             STREAMFLOW =         203133.83
     GW BOUNDARY FLOW =                         GW BOUNDARY FLOW =                  

   INFLOWS - OUTFLOWS =        1.3517D+08     INFLOWS - OUTFLOWS =       -5615821.21
             --------                                   --------

 TOTAL STORAGE CHANGE =        1.3033D+08         STORAGE CHANGE =       -5623771.63
       --------------                             --------------
         LAND SURFACE =        9796535.79           LAND SURFACE =        -964195.82
            SOIL ZONE =       -1.8495D+07              SOIL ZONE =       -1819894.16
     UNSATURATED ZONE =       -2659727.64       UNSATURATED ZONE =        -125910.46
       SATURATED ZONE =       -9688862.19         SATURATED ZONE =        -221324.95
                LAKES =        1.5138D+08                  LAKES =       -2492446.25

 OVERALL BUDGET ERROR =        4834567.04           BUDGET ERROR =           7950.43


  PERCENT DISCREPANCY =              0.62    PERCENT DISCREPANCY =              0.14



1
 SUMMARY VOLUMETRIC BUDGET FOR GSFLOW 
 DATE: 06 16 1981              CUMULATIVE TIME STEP:     259
 MODFLOW STRESS PERIOD      1     CURRENT TIME STEP:     259     ITERATIONS:      14

 -----------------------------------------------------------------------------------

   CUMULATIVE VOLUMES               L**3   RATES FOR THIS TIME STEP           L**3/T
   ------------------                      ------------------------

                                     IN                                         IN
                                     --                                         --
        PRECIPITATION =        7.7752D+08          PRECIPITATION =                  
           STREAMFLOW =                               STREAMFLOW =                  
     GW BOUNDARY FLOW =                         GW BOUNDARY FLOW =                  


                                    OUT                                        OUT
                                    ---                                        ---
   EVAPOTRANSPIRATION =        6.0222D+08     EVAPOTRANSPIRATION =        4684319.46
           STREAMFLOW =        7.0935D+07             STREAMFLOW =         702199.94
     GW BOUNDARY FLOW =                         GW BOUNDARY FLOW =                  

   INFLOWS - OUTFLOWS =        1.0436D+08     INFLOWS - OUTFLOWS =       -5386519.40
             --------                                   --------

 TOTAL STORAGE CHANGE =        9.9518D+07         STORAGE CHANGE =       -5381430.29
[...]
           STREAMFLOW =        1.6168D+09             STREAMFLOW =        4966705.50
     GW BOUNDARY FLOW =                         GW BOUNDARY FLOW =                  

   INFLOWS - OUTFLOWS =        1.0335D+09     INFLOWS - OUTFLOWS =        1138320.39
             --------                                   --------

 TOTAL STORAGE CHANGE =        1.0136D+09         STORAGE CHANGE =        1116784.57
       --------------                             --------------
         LAND SURFACE =        3.3540D+08           LAND SURFACE =        4606953.51
            SOIL ZONE =        5177603.59              SOIL ZONE =         -71081.79
     UNSATURATED ZONE =        1083818.85       UNSATURATED ZONE =          27236.00
       SATURATED ZONE =       -5.4553D+07         SATURATED ZONE =        -172897.91
                LAKES =        7.2645D+08                  LAKES =       -3273425.25

 OVERALL BUDGET ERROR =        1.9901D+07           BUDGET ERROR =          21535.82


  PERCENT DISCREPANCY =              0.36    PERCENT DISCREPANCY =              0.33



1
 SUMMARY VOLUMETRIC BUDGET FOR GSFLOW 
 DATE: 12 06 1983              CUMULATIVE TIME STEP:    1162
 MODFLOW STRESS PERIOD      1     CURRENT TIME STEP:    1162     ITERATIONS:       3

 -----------------------------------------------------------------------------------

   CUMULATIVE VOLUMES               L**3   RATES FOR THIS TIME STEP           L**3/T
   ------------------                      ------------------------

                                     IN                                         IN
                                     --                                         --
        PRECIPITATION =        5.6038D+09          PRECIPITATION =        3198161.89
           STREAMFLOW =                               STREAMFLOW =                  
     GW BOUNDARY FLOW =                         GW BOUNDARY FLOW =                  


                                    OUT                                        OUT
                                    ---                                        ---
   EVAPOTRANSPIRATION =        2.8997D+09     EVAPOTRANSPIRATION =         185752.87
           STREAMFLOW =        1.6522D+09             STREAMFLOW =        5064639.00
     GW BOUNDARY FLOW =                         GW BOUNDARY FLOW =                  

   INFLOWS - OUTFLOWS =        1.0519D+09     INFLOWS - OUTFLOWS =       -2052229.98
             --------                                   --------

 TOTAL STORAGE CHANGE =        1.0317D+09         STORAGE CHANGE =       -2081572.73
       --------------                             --------------
         LAND SURFACE =        3.7376D+08           LAND SURFACE =        2296320.51
            SOIL ZONE =        5743590.67              SOIL ZONE =        -130374.97
     UNSATURATED ZONE =        1368052.91       UNSATURATED ZONE =          28723.19
       SATURATED ZONE =       -5.5590D+07         SATURATED ZONE =        -163834.22
                LAKES =        7.0644D+08                  LAKES =       -4112407.25

 OVERALL BUDGET ERROR =        2.0181D+07           BUDGET ERROR =          29342.76


  PERCENT DISCREPANCY =              0.36    PERCENT DISCREPANCY =              0.56



1
 SUMMARY VOLUMETRIC BUDGET FOR GSFLOW 
 DATE: 12 13 1983              CUMULATIVE TIME STEP:    1169
 MODFLOW STRESS PERIOD      1     CURRENT TIME STEP:    1169     ITERATIONS:      13

 -----------------------------------------------------------------------------------

   CUMULATIVE VOLUMES               L**3   RATES FOR THIS TIME STEP           L**3/T
   ------------------                      ------------------------

                                     IN                                         IN
                                     --                                         --
        PRECIPITATION =        5.6998D+09          PRECIPITATION =        9594484.95
           STREAMFLOW =                               STREAMFLOW =                  
     GW BOUNDARY FLOW =                         GW BOUNDARY FLOW =                  


                                    OUT                                        OUT
                                    ---                                        ---
   EVAPOTRANSPIRATION =        2.9034D+09     EVAPOTRANSPIRATION =         226557.47
           STREAMFLOW =        1.6892D+09             STREAMFLOW =        5260512.00
     GW BOUNDARY FLOW =                         GW BOUNDARY FLOW =                  

   INFLOWS - OUTFLOWS =        1.1071D+09     INFLOWS - OUTFLOWS =        4107415.47
             --------                                   --------

 TOTAL STORAGE CHANGE =        1.0868D+09         STORAGE CHANGE =        4071240.91
       --------------                             --------------
         LAND SURFACE =        4.3778D+08           LAND SURFACE =        7019560.16
            SOIL ZONE =        6985892.40              SOIL ZONE =        -184086.63
     UNSATURATED ZONE =        1842999.19       UNSATURATED ZONE =          40811.71
       SATURATED ZONE =       -5.6304D+07         SATURATED ZONE =        -175892.83
                LAKES =        6.9644D+08                  LAKES =       -2629151.50

 OVERALL BUDGET ERROR =        2.0396D+07           BUDGET ERROR =          36174.57


  PERCENT DISCREPANCY =              0.36    PERCENT DISCREPANCY =              0.38



1
 SUMMARY VOLUMETRIC BUDGET FOR GSFLOW 
 DATE: 12 20 1983              CUMULATIVE TIME STEP:    1176
 MODFLOW STRESS PERIOD      1     CURRENT TIME STEP:    1176     ITERATIONS:       4

 -----------------------------------------------------------------------------------

   CUMULATIVE VOLUMES               L**3   RATES FOR THIS TIME STEP           L**3/T
   ------------------                      ------------------------

                                     IN                                         IN
                                     --                                         --
        PRECIPITATION =        5.7158D+09          PRECIPITATION =                  
           STREAMFLOW =                               STREAMFLOW =                  
     GW BOUNDARY FLOW =                         GW BOUNDARY FLOW =                  


                                    OUT                                        OUT
                                    ---                                        ---
   EVAPOTRANSPIRATION =        2.9112D+09     EVAPOTRANSPIRATION =         347209.92
           STREAMFLOW =        1.7277D+09             STREAMFLOW =        5578472.50
     GW BOUNDARY FLOW =                         GW BOUNDARY FLOW =                  

   INFLOWS - OUTFLOWS =        1.0768D+09     INFLOWS - OUTFLOWS =       -5925682.42
             --------                                   --------

 TOTAL STORAGE CHANGE =        1.0561D+09         STORAGE CHANGE =       -5953874.82
       --------------                             --------------
         LAND SURFACE =        4.4092D+08           LAND SURFACE =        -229898.36
            SOIL ZONE =        7722368.00              SOIL ZONE =        -181934.78
     UNSATURATED ZONE =        2334558.95       UNSATURATED ZONE =          43232.30
       SATURATED ZONE =       -5.7247D+07         SATURATED ZONE =        -199760.47
                LAKES =        6.6237D+08                  LAKES =       -5385513.50

 OVERALL BUDGET ERROR =        2.0704D+07           BUDGET ERROR =          28192.40


  PERCENT DISCREPANCY =              0.36    PERCENT DISCREPANCY =              0.47



1
 SUMMARY VOLUMETRIC BUDGET FOR GSFLOW 
 DATE: 12 27 1983              CUMULATIVE TIME STEP:    1183
 MODFLOW STRESS PERIOD      1     CURRENT TIME STEP:    1183     ITERATIONS:      28

 -----------------------------------------------------------------------------------

   CUMULATIVE VOLUMES               L**3   RATES FOR THIS TIME STEP           L**3/T
   ------------------                      ------------------------

                                     IN                                         IN
                                     --                                         --
        PRECIPITATION =        5.8917D+09          PRECIPITATION =        9594484.95
           STREAMFLOW =                               STREAMFLOW =                  
     GW BOUNDARY FLOW =                         GW BOUNDARY FLOW =                  


                                    OUT                                        OUT
                                    ---                                        ---
   EVAPOTRANSPIRATION =        2.9135D+09     EVAPOTRANSPIRATION =         396822.73
           STREAMFLOW =        1.7667D+09             STREAMFLOW =        5677393.00
     GW BOUNDARY FLOW =                         GW BOUNDARY FLOW =                  

   INFLOWS - OUTFLOWS =        1.2115D+09     INFLOWS - OUTFLOWS =        3520269.22
             --------                                   --------

 TOTAL STORAGE CHANGE =        1.1905D+09         STORAGE CHANGE =        3462599.64
       --------------                             --------------
         LAND SURFACE =        5.6571D+08           LAND SURFACE =        5841371.54
            SOIL ZONE =        8456658.52              SOIL ZONE =         228038.00
     UNSATURATED ZONE =        2603270.57       UNSATURATED ZONE =          96879.91
       SATURATED ZONE =       -5.7879D+07         SATURATED ZONE =         -84727.06
                LAKES =        6.7158D+08                  LAKES =       -2618962.75

 OVERALL BUDGET ERROR =        2.0985D+07           BUDGET ERROR =          57669.58


  PERCENT DISCREPANCY =              0.36    PERCENT DISCREPANCY =              0.60



1
 SUMMARY VOLUMETRIC BUDGET FOR GSFLOW 
 DATE: 01 03 1984              CUMULATIVE TIME STEP:    1190
 MODFLOW STRESS PERIOD      1     CURRENT TIME STEP:    1190     ITERATIONS:       7

 -----------------------------------------------------------------------------------

   CUMULATIVE VOLUMES               L**3   RATES FOR THIS TIME STEP           L**3/T
   ------------------                      ------------------------

                                     IN                                         IN
                                     --                                         --
        PRECIPITATION =        5.9235D+09          PRECIPITATION =                  
           STREAMFLOW =                               STREAMFLOW =                  
     GW BOUNDARY FLOW =                         GW BOUNDARY FLOW =                  


                                    OUT                                        OUT
                                    ---                                        ---
   EVAPOTRANSPIRATION =        2.9199D+09     EVAPOTRANSPIRATION =        1449397.81
           STREAMFLOW =        1.8063D+09             STREAMFLOW =        5603065.50
     GW BOUNDARY FLOW =                         GW BOUNDARY FLOW =                  

   INFLOWS - OUTFLOWS =        1.1973D+09     INFLOWS - OUTFLOWS =       -7052463.31
             --------                                   --------

 TOTAL STORAGE CHANGE =        1.1759D+09         STORAGE CHANGE =       -7080596.90
       --------------                             --------------
         LAND SURFACE =        5.7870D+08           LAND SURFACE =        -976138.39
            SOIL ZONE =        9169165.26              SOIL ZONE =        -188738.80
     UNSATURATED ZONE =        3165168.66       UNSATURATED ZONE =          39273.94
       SATURATED ZONE =       -5.8766D+07         SATURATED ZONE =        -189327.64
                LAKES =        6.4367D+08                  LAKES =       -5765666.00

 OVERALL BUDGET ERROR =        2.1334D+07           BUDGET ERROR =          28133.59


  PERCENT DISCREPANCY =              0.36    PERCENT DISCREPANCY =              0.40



1
 SUMMARY VOLUMETRIC BUDGET FOR GSFLOW 
 DATE: 01 10 1984              CUMULATIVE TIME STEP:    1197
 MODFLOW STRESS PERIOD      1     CURRENT TIME STEP:    1197     ITERATIONS:       8

 -----------------------------------------------------------------------------------

   CUMULATIVE VOLUMES               L**3   RATES FOR THIS TIME STEP           L**3/T
   ------------------                      ------------------------

                                     IN                                         IN
                                     --                                         --
        PRECIPITATION =        5.9235D+09          PRECIPITATION =                  
           STREAMFLOW =                               STREAMFLOW =                  
     GW BOUNDARY FLOW =                         GW BOUNDARY FLOW =                  


                                    OUT                                        OUT
                                    ---                                        ---
   EVAPOTRANSPIRATION =        2.9323D+09     EVAPOTRANSPIRATION =        1728765.73
           STREAMFLOW =        1.8438D+09             STREAMFLOW =        5235932.00
     GW BOUNDARY FLOW =                         GW BOUNDARY FLOW =                  

   INFLOWS - OUTFLOWS =        1.1474D+09     INFLOWS - OUTFLOWS =       -6964697.73
             --------                                   --------

 TOTAL STORAGE CHANGE =        1.1258D+09         STORAGE CHANGE =       -6999818.06
       --------------                             --------------
         LAND SURFACE =        5.6643D+08           LAND SURFACE =       -2016428.22
            SOIL ZONE =        1.0292D+07              SOIL ZONE =         297363.50
     UNSATURATED ZONE =        3523580.72       UNSATURATED ZONE =          75376.98
       SATURATED ZONE =       -5.9555D+07         SATURATED ZONE =         -69362.31
                LAKES =        6.0514D+08                  LAKES =       -5286768.00

 OVERALL BUDGET ERROR =        2.1566D+07           BUDGET ERROR =          35120.33


  PERCENT DISCREPANCY =              0.36    PERCENT DISCREPANCY =              0.50



1
 SUMMARY VOLUMETRIC BUDGET FOR GSFLOW 
 DATE: 01 17 1984              CUMULATIVE TIME STEP:    1204
 MODFLOW STRESS PERIOD      1     CURRENT TIME STEP:    1204     ITERATIONS:       8

 -----------------------------------------------------------------------------------

   CUMULATIVE VOLUMES               L**3   RATES FOR THIS TIME STEP           L**3/T
   ------------------                      ------------------------

                                     IN                                         IN
                                     --                                         --
        PRECIPITATION =        5.9475D+09          PRECIPITATION =                  
           STREAMFLOW =                               STREAMFLOW =                  
     GW BOUNDARY FLOW =                         GW BOUNDARY FLOW =                  


                                    OUT                                        OUT
                                    ---                                        ---
   EVAPOTRANSPIRATION =        2.9360D+09     EVAPOTRANSPIRATION =         514342.19
           STREAMFLOW =        1.8795D+09             STREAMFLOW =        5015583.00
     GW BOUNDARY FLOW =                         GW BOUNDARY FLOW =                  

   INFLOWS - OUTFLOWS =        1.1319D+09     INFLOWS - OUTFLOWS =       -5529925.19
             --------                                   --------

 TOTAL STORAGE CHANGE =        1.1103D+09         STORAGE CHANGE =       -5547653.78
       --------------                             --------------
         LAND SURFACE =        5.8186D+08           LAND SURFACE =        -369940.34
            SOIL ZONE =        9284633.03              SOIL ZONE =        -102884.40
     UNSATURATED ZONE =        3599175.07       UNSATURATED ZONE =         -11128.47
       SATURATED ZONE =       -6.0589D+07         SATURATED ZONE =        -146496.58
                LAKES =        5.7620D+08                  LAKES =       -4917204.00

 OVERALL BUDGET ERROR =        2.1582D+07           BUDGET ERROR =          17728.59


  PERCENT DISCREPANCY =              0.36    PERCENT DISCREPANCY =              0.32



1
 SUMMARY VOLUMETRIC BUDGET FOR GSFLOW 
 DATE: 01 24 1984              CUMULATIVE TIME STEP:    1211
 MODFLOW STRESS PERIOD      1     CURRENT TIME STEP:    1211     ITERATIONS:       9

 -----------------------------------------------------------------------------------

   CUMULATIVE VOLUMES               L**3   RATES FOR THIS TIME STEP           L**3/T
   ------------------                      ------------------------

                                     IN                                         IN
                                     --                                         --
        PRECIPITATION =        5.9535D+09          PRECIPITATION =                  
           STREAMFLOW =                               STREAMFLOW =                  
     GW BOUNDARY FLOW =                         GW BOUNDARY FLOW =                  


                                    OUT                                        OUT
                                    ---                                        ---
   EVAPOTRANSPIRATION =        2.9414D+09     EVAPOTRANSPIRATION =        1048025.86
           STREAMFLOW =        1.9143D+09             STREAMFLOW =        4917688.50
     GW BOUNDARY FLOW =                         GW BOUNDARY FLOW =                  

   INFLOWS - OUTFLOWS =        1.0977D+09     INFLOWS - OUTFLOWS =       -5965714.36
             --------                                   --------

 TOTAL STORAGE CHANGE =        1.0761D+09         STORAGE CHANGE =       -5981097.02
       --------------                             --------------
         LAND SURFACE =        5.8317D+08           LAND SURFACE =        -583964.56
            SOIL ZONE =        8746785.09              SOIL ZONE =         -67502.63
     UNSATURATED ZONE =        3374907.26       UNSATURATED ZONE =         -41689.12
       SATURATED ZONE =       -6.1562D+07         SATURATED ZONE =        -136803.70
                LAKES =        5.4234D+08                  LAKES =       -5151137.00

 OVERALL BUDGET ERROR =        2.1659D+07           BUDGET ERROR =          15382.66


  PERCENT DISCREPANCY =              0.36    PERCENT DISCREPANCY =              0.26



 Number of time steps:   1217;  Number of non-convergence:   0
 MF iterations:         22651;  SZ iterations:           22695
 Average MF iterations: 18.61;  Average SZ iterations:   18.65
 Maximum MF iterations:   138;  Maximum SZ iterations:     138

MF iteration distribution:      0   22   84   94   77   29   37   47   40   36
                               49   40   45   48   31   29   22   14   33   15
                               21   19   23   13   18   20   13   21   19   14
                               18   13   15    4   29    6   14    5   10    7
                               14    9    5    5    2    8    6    9    6    6
                                5    7    6    5    1    1    1    2    1    1
                                2    2    1    3    1    0    2    0    2    2
                                0    0    1    0    1    1    0    0    0    5

SZ computation distribution:    0   19   87   93   78   27   38   47   39   38
                               49   36   46   44   36   27   24   15   27   20
                               23   18   24   13   18   20   13   21   19   14
                               18   13   15    4   29    6   14    5   10    7
                               14    9    5    5    2    8    6    9    5    7
                                5    7    6    5    1    1    1    2    1    1
                                2    2    1    3    1    0    2    0    2    2
                                0    0    1    0    1    1    0    0    0    5

