1
 SUMMARY VOLUMETRIC BUDGET FOR GSFLOW 
 DATE: 10 07 1980              CUMULATIVE TIME STEP:       7
 MODFLOW STRESS PERIOD      1     CURRENT TIME STEP:       7     ITERATIONS:      14

 -----------------------------------------------------------------------------------

   CUMULATIVE VOLUMES               L**3   RATES FOR THIS TIME STEP           L**3/T
   ------------------                      ------------------------

                                     IN                                         IN
                                     --                                         --
        PRECIPITATION =                            PRECIPITATION =                  
           STREAMFLOW =                               STREAMFLOW =                  
     GW BOUNDARY FLOW =                         GW BOUNDARY FLOW =                  


                                    OUT                                        OUT
                                    ---                                        ---
   EVAPOTRANSPIRATION =        1.5902D+07     EVAPOTRANSPIRATION =        1486778.45
           STREAMFLOW =        1672059.05             STREAMFLOW =         183556.66
     GW BOUNDARY FLOW =                         GW BOUNDARY FLOW =                  

   INFLOWS - OUTFLOWS =       -1.7574D+07     INFLOWS - OUTFLOWS =       -1670335.10
             --------                                   --------

 TOTAL STORAGE CHANGE =       -1.7548D+07         STORAGE CHANGE =       -1676943.00
       --------------                             --------------
         LAND SURFACE =                             LAND SURFACE =                  
            SOIL ZONE =       -5740147.57              SOIL ZONE =        -270250.09
     UNSATURATED ZONE =       -1425433.12       UNSATURATED ZONE =         -62824.44
       SATURATED ZONE =       -1298452.75         SATURATED ZONE =        -269812.22
                LAKES =       -9083916.50                  LAKES =       -1074056.25

 OVERALL BUDGET ERROR =         -25766.85           BUDGET ERROR =           6607.89


  PERCENT DISCREPANCY =             -0.15    PERCENT DISCREPANCY =              0.39



1
 SUMMARY VOLUMETRIC BUDGET FOR GSFLOW 
 DATE: 10 14 1980              CUMULATIVE TIME STEP:      14
 MODFLOW STRESS PERIOD      1     CURRENT TIME STEP:      14     ITERATIONS:       3

 -----------------------------------------------------------------------------------

   CUMULATIVE VOLUMES               L**3   RATES FOR THIS TIME STEP           L**3/T
   ------------------                      ------------------------

                                     IN                                         IN
                                     --                                         --
        PRECIPITATION =        1.3442D+07          PRECIPITATION =        6721104.51
           STREAMFLOW =                               STREAMFLOW =                  
     GW BOUNDARY FLOW =                         GW BOUNDARY FLOW =                  


                                    OUT                                        OUT
                                    ---                                        ---
   EVAPOTRANSPIRATION =        2.3601D+07     EVAPOTRANSPIRATION =         501661.47
           STREAMFLOW =        2279257.78             STREAMFLOW =          34825.50
     GW BOUNDARY FLOW =                         GW BOUNDARY FLOW =                  

   INFLOWS - OUTFLOWS =       -1.2438D+07     INFLOWS - OUTFLOWS =        6184617.54
             --------                                   --------

 TOTAL STORAGE CHANGE =       -1.2508D+07         STORAGE CHANGE =        6139549.71
       --------------                             --------------
         LAND SURFACE =        2552191.87           LAND SURFACE =        1584944.64
            SOIL ZONE =         -63997.31              SOIL ZONE =        2954220.22
     UNSATURATED ZONE =       -1866241.45       UNSATURATED ZONE =         -57400.99
       SATURATED ZONE =       -2730640.80         SATURATED ZONE =        -123074.53
                LAKES =       -1.0399D+07                  LAKES =        1780860.38

 OVERALL BUDGET ERROR =          70300.21           BUDGET ERROR =          45067.83


  PERCENT DISCREPANCY =              0.27    PERCENT DISCREPANCY =              0.67



1
 SUMMARY VOLUMETRIC BUDGET FOR GSFLOW 
 DATE: 10 21 1980              CUMULATIVE TIME STEP:      21
 MODFLOW STRESS PERIOD      1     CURRENT TIME STEP:      21     ITERATIONS:       3

 -----------------------------------------------------------------------------------

   CUMULATIVE VOLUMES               L**3   RATES FOR THIS TIME STEP           L**3/T
   ------------------                      ------------------------

                                     IN                                         IN
                                     --                                         --
        PRECIPITATION =        1.6803D+07          PRECIPITATION =                  
           STREAMFLOW =                               STREAMFLOW =                  
     GW BOUNDARY FLOW =                         GW BOUNDARY FLOW =                  


                                    OUT                                        OUT
                                    ---                                        ---
   EVAPOTRANSPIRATION =        3.0531D+07     EVAPOTRANSPIRATION =        1454743.56
           STREAMFLOW =        3039697.01             STREAMFLOW =         364392.81
     GW BOUNDARY FLOW =                         GW BOUNDARY FLOW =                  

   INFLOWS - OUTFLOWS =       -1.6768D+07     INFLOWS - OUTFLOWS =       -1819136.37
             --------                                   --------

 TOTAL STORAGE CHANGE =       -1.6853D+07         STORAGE CHANGE =       -1813546.18
       --------------                             --------------
         LAND SURFACE =         582235.16           LAND SURFACE =        -191386.44
            SOIL ZONE =        -324569.85              SOIL ZONE =        -635072.95
     UNSATURATED ZONE =       -2304052.43       UNSATURATED ZONE =         -58771.13
       SATURATED ZONE =       -3774833.47         SATURATED ZONE =        -157224.59
                LAKES =       -1.1032D+07                  LAKES =        -771091.06

 OVERALL BUDGET ERROR =          84953.13           BUDGET ERROR =          -5590.19


  PERCENT DISCREPANCY =              0.25    PERCENT DISCREPANCY =             -0.31



1
 SUMMARY VOLUMETRIC BUDGET FOR GSFLOW 
 DATE: 10 28 1980              CUMULATIVE TIME STEP:      28
 MODFLOW STRESS PERIOD      1     CURRENT TIME STEP:      28     ITERATIONS:       4

 -----------------------------------------------------------------------------------

   CUMULATIVE VOLUMES               L**3   RATES FOR THIS TIME STEP           L**3/T
   ------------------                      ------------------------

                                     IN                                         IN
                                     --                                         --
        PRECIPITATION =        4.0327D+07          PRECIPITATION =                  
           STREAMFLOW =                               STREAMFLOW =                  
     GW BOUNDARY FLOW =                         GW BOUNDARY FLOW =                  


                                    OUT                                        OUT
                                    ---                                        ---
   EVAPOTRANSPIRATION =        3.7505D+07     EVAPOTRANSPIRATION =         437372.10
           STREAMFLOW =        5483163.45             STREAMFLOW =         342843.84
     GW BOUNDARY FLOW =                         GW BOUNDARY FLOW =                  

   INFLOWS - OUTFLOWS =       -2661634.31     INFLOWS - OUTFLOWS =        -780215.94
             --------                                   --------

 TOTAL STORAGE CHANGE =       -2920176.27         STORAGE CHANGE =        -733760.87
       --------------                             --------------
         LAND SURFACE =        4873656.87           LAND SURFACE =        -161715.81
            SOIL ZONE =        7118648.86              SOIL ZONE =        -251878.26
     UNSATURATED ZONE =       -2603027.79       UNSATURATED ZONE =         -32078.79
       SATURATED ZONE =       -4497245.05         SATURATED ZONE =        -127008.64
                LAKES =       -7812209.16                  LAKES =        -161079.36

 OVERALL BUDGET ERROR =         258541.96           BUDGET ERROR =         -46455.08

  ***WARNING, FLUX RATES OFF > 3%

  PERCENT DISCREPANCY =              0.60    PERCENT DISCREPANCY =             -6.14



1
 SUMMARY VOLUMETRIC BUDGET FOR GSFLOW 
 DATE: 11 04 1980              CUMULATIVE TIME STEP:      35
 MODFLOW STRESS PERIOD      1     CURRENT TIME STEP:      35     ITERATIONS:       5

 -----------------------------------------------------------------------------------

   CUMULATIVE VOLUMES               L**3   RATES FOR THIS TIME STEP           L**3/T
   ------------------                      ------------------------

                                     IN                                         IN
                                     --                                         --
        PRECIPITATION =        5.0408D+07          PRECIPITATION =                  
           STREAMFLOW =                               STREAMFLOW =                  
     GW BOUNDARY FLOW =                         GW BOUNDARY FLOW =                  


                                    OUT                                        OUT
                                    ---                                        ---
   EVAPOTRANSPIRATION =        5.2245D+07     EVAPOTRANSPIRATION =        2795316.29
           STREAMFLOW =        7932061.89             STREAMFLOW =         350030.38
     GW BOUNDARY FLOW =                         GW BOUNDARY FLOW =                  

   INFLOWS - OUTFLOWS =       -9769239.99     INFLOWS - OUTFLOWS =       -3145346.66
             --------                                   --------

 TOTAL STORAGE CHANGE =       -1.0348D+07         STORAGE CHANGE =       -3138013.01
       --------------                             --------------
         LAND SURFACE =         253222.42           LAND SURFACE =         -53384.75
            SOIL ZONE =        4059867.20              SOIL ZONE =       -1773880.13
     UNSATURATED ZONE =       -2548086.11       UNSATURATED ZONE =         -43081.41
       SATURATED ZONE =       -5038876.06         SATURATED ZONE =        -250147.72
                LAKES =       -7074446.16                  LAKES =       -1017519.00

 OVERALL BUDGET ERROR =         579078.72           BUDGET ERROR =          -7333.66


  PERCENT DISCREPANCY =              0.96    PERCENT DISCREPANCY =             -0.23



1
 SUMMARY VOLUMETRIC BUDGET FOR GSFLOW 
 DATE: 11 11 1980              CUMULATIVE TIME STEP:      42
 MODFLOW STRESS PERIOD      1     CURRENT TIME STEP:      42     ITERATIONS:       5

 -----------------------------------------------------------------------------------

   CUMULATIVE VOLUMES               L**3   RATES FOR THIS TIME STEP           L**3/T
   ------------------                      ------------------------

                                     IN                                         IN
                                     --                                         --
        PRECIPITATION =        7.9485D+07          PRECIPITATION =        3230734.65
           STREAMFLOW =                               STREAMFLOW =                  
     GW BOUNDARY FLOW =                         GW BOUNDARY FLOW =                  


                                    OUT                                        OUT
                                    ---                                        ---
   EVAPOTRANSPIRATION =        6.9945D+07     EVAPOTRANSPIRATION =        1682042.31
           STREAMFLOW =        9809690.98             STREAMFLOW =         250092.16
     GW BOUNDARY FLOW =                         GW BOUNDARY FLOW =                  

   INFLOWS - OUTFLOWS =        -270268.68     INFLOWS - OUTFLOWS =        1298600.19
             --------                                   --------

 TOTAL STORAGE CHANGE =       -1201902.25         STORAGE CHANGE =        1173650.54
       --------------                             --------------
         LAND SURFACE =        3621835.70           LAND SURFACE =         -63920.05
            SOIL ZONE =        8714229.57              SOIL ZONE =         696771.75
     UNSATURATED ZONE =       -2593969.60       UNSATURATED ZONE =          36709.24
       SATURATED ZONE =       -5926007.52         SATURATED ZONE =         -41620.39
                LAKES =       -5017990.41                  LAKES =         545710.00

 OVERALL BUDGET ERROR =         931633.57           BUDGET ERROR =         124949.66

  ***WARNING, FLUX RATES OFF > 3%

  PERCENT DISCREPANCY =              1.16    PERCENT DISCREPANCY =              3.94



1
 SUMMARY VOLUMETRIC BUDGET FOR GSFLOW 
 DATE: 11 18 1980              CUMULATIVE TIME STEP:      49
 MODFLOW STRESS PERIOD      1     CURRENT TIME STEP:      49     ITERATIONS:       3

 -----------------------------------------------------------------------------------

   CUMULATIVE VOLUMES               L**3   RATES FOR THIS TIME STEP           L**3/T
   ------------------                      ------------------------

                                     IN                                         IN
                                     --                                         --
        PRECIPITATION =        8.5946D+07          PRECIPITATION =                  
           STREAMFLOW =                               STREAMFLOW =                  
     GW BOUNDARY FLOW =                         GW BOUNDARY FLOW =                  


                                    OUT                                        OUT
                                    ---                                        ---
   EVAPOTRANSPIRATION =        7.6133D+07     EVAPOTRANSPIRATION =        1491034.53
           STREAMFLOW =        1.1638D+07             STREAMFLOW =         312770.31
     GW BOUNDARY FLOW =                         GW BOUNDARY FLOW =                  

   INFLOWS - OUTFLOWS =       -1824904.44     INFLOWS - OUTFLOWS =       -1803804.84
             --------                                   --------

 TOTAL STORAGE CHANGE =       -2509761.96         STORAGE CHANGE =       -1758883.33
       --------------                             --------------
         LAND SURFACE =        4247190.46           LAND SURFACE =        -429064.21
            SOIL ZONE =        8138608.91              SOIL ZONE =        -641671.02
     UNSATURATED ZONE =       -2534391.78       UNSATURATED ZONE =          15191.00
       SATURATED ZONE =       -7173291.51         SATURATED ZONE =        -172112.30
                LAKES =       -5187878.05                  LAKES =        -531226.81

 OVERALL BUDGET ERROR =         684857.52           BUDGET ERROR =         -44921.52


  PERCENT DISCREPANCY =              0.78    PERCENT DISCREPANCY =             -2.52



1
 SUMMARY VOLUMETRIC BUDGET FOR GSFLOW 
 DATE: 11 25 1980              CUMULATIVE TIME STEP:      56
 MODFLOW STRESS PERIOD      1     CURRENT TIME STEP:      56     ITERATIONS:       3

 -----------------------------------------------------------------------------------

   CUMULATIVE VOLUMES               L**3   RATES FOR THIS TIME STEP           L**3/T
   ------------------                      ------------------------

                                     IN                                         IN
                                     --                                         --
        PRECIPITATION =        8.9177D+07          PRECIPITATION =                  
           STREAMFLOW =                               STREAMFLOW =                  
     GW BOUNDARY FLOW =                         GW BOUNDARY FLOW =                  


                                    OUT                                        OUT
                                    ---                                        ---
   EVAPOTRANSPIRATION =        8.2911D+07     EVAPOTRANSPIRATION =         270470.48
           STREAMFLOW =        1.4055D+07             STREAMFLOW =         437097.81
     GW BOUNDARY FLOW =                         GW BOUNDARY FLOW =                  

   INFLOWS - OUTFLOWS =       -7788362.38     INFLOWS - OUTFLOWS =        -707568.29
             --------                                   --------

 TOTAL STORAGE CHANGE =       -8561865.47         STORAGE CHANGE =        -720892.82
       --------------                             --------------
         LAND SURFACE =        4128151.39           LAND SURFACE =         -26936.60
            SOIL ZONE =        6206752.78              SOIL ZONE =        -178120.55
     UNSATURATED ZONE =       -2564435.68       UNSATURATED ZONE =         -17359.83
       SATURATED ZONE =       -8410347.24         SATURATED ZONE =        -181992.78
                LAKES =       -7921986.71                  LAKES =        -316483.06

 OVERALL BUDGET ERROR =         773503.09           BUDGET ERROR =          13324.53


  PERCENT DISCREPANCY =              0.79    PERCENT DISCREPANCY =              1.87



1
 SUMMARY VOLUMETRIC BUDGET FOR GSFLOW 
 DATE: 12 02 1980              CUMULATIVE TIME STEP:      63
 MODFLOW STRESS PERIOD      1     CURRENT TIME STEP:      63     ITERATIONS:       4

 -----------------------------------------------------------------------------------

   CUMULATIVE VOLUMES               L**3   RATES FOR THIS TIME STEP           L**3/T
   ------------------                      ------------------------

                                     IN                                         IN
                                     --                                         --
        PRECIPITATION =        1.0846D+08          PRECIPITATION =        3198161.89
           STREAMFLOW =                               STREAMFLOW =                  
     GW BOUNDARY FLOW =                         GW BOUNDARY FLOW =                  


                                    OUT                                        OUT
                                    ---                                        ---
   EVAPOTRANSPIRATION =        9.0375D+07     EVAPOTRANSPIRATION =        1269996.98
           STREAMFLOW =        1.7318D+07             STREAMFLOW =         437215.56
     GW BOUNDARY FLOW =                         GW BOUNDARY FLOW =                  

   INFLOWS - OUTFLOWS =         771405.21     INFLOWS - OUTFLOWS =        1490949.36
             --------                                   --------

 TOTAL STORAGE CHANGE =        -379441.38         STORAGE CHANGE =        1323313.66
       --------------                             --------------
         LAND SURFACE =        7153033.02           LAND SURFACE =        -909613.46
            SOIL ZONE =        1.0040D+07              SOIL ZONE =        1706817.38
     UNSATURATED ZONE =       -2434515.86       UNSATURATED ZONE =          45495.23
       SATURATED ZONE =       -9155141.55         SATURATED ZONE =         -50604.55
                LAKES =       -5982922.15                  LAKES =         531219.06

 OVERALL BUDGET ERROR =        1150846.58           BUDGET ERROR =         167635.70

  ***WARNING, FLUX RATES OFF > 3%

  PERCENT DISCREPANCY =              1.06    PERCENT DISCREPANCY =              5.38



1
 SUMMARY VOLUMETRIC BUDGET FOR GSFLOW 
 DATE: 12 09 1980              CUMULATIVE TIME STEP:      70
 MODFLOW STRESS PERIOD      1     CURRENT TIME STEP:      70     ITERATIONS:       3

 -----------------------------------------------------------------------------------

   CUMULATIVE VOLUMES               L**3   RATES FOR THIS TIME STEP           L**3/T
   ------------------                      ------------------------

                                     IN                                         IN
                                     --                                         --
        PRECIPITATION =        1.7882D+08          PRECIPITATION =                  
           STREAMFLOW =                               STREAMFLOW =                  
     GW BOUNDARY FLOW =                         GW BOUNDARY FLOW =                  


                                    OUT                                        OUT
                                    ---                                        ---
   EVAPOTRANSPIRATION =        9.2654D+07     EVAPOTRANSPIRATION =         376383.53
           STREAMFLOW =        2.0282D+07             STREAMFLOW =         420980.56
     GW BOUNDARY FLOW =                         GW BOUNDARY FLOW =                  

   INFLOWS - OUTFLOWS =        6.5887D+07     INFLOWS - OUTFLOWS =        -797364.10
             --------                                   --------

 TOTAL STORAGE CHANGE =        6.4453D+07         STORAGE CHANGE =        -819893.09
       --------------                             --------------
         LAND SURFACE =        5.1471D+07           LAND SURFACE =        -232729.71
            SOIL ZONE =        1.3028D+07              SOIL ZONE =        -136294.62
     UNSATURATED ZONE =       -2047211.88       UNSATURATED ZONE =          32822.08
       SATURATED ZONE =       -1.0141D+07         SATURATED ZONE =        -204547.03
                LAKES =        1.2143D+07                  LAKES =        -279143.81

 OVERALL BUDGET ERROR =        1433468.12           BUDGET ERROR =          22529.00


  PERCENT DISCREPANCY =              0.80    PERCENT DISCREPANCY =              2.79



1
 SUMMARY VOLUMETRIC BUDGET FOR GSFLOW 
 DATE: 12 16 1980              CUMULATIVE TIME STEP:      77
 MODFLOW STRESS PERIOD      1     CURRENT TIME STEP:      77     ITERATIONS:       2

 -----------------------------------------------------------------------------------

   CUMULATIVE VOLUMES               L**3   RATES FOR THIS TIME STEP           L**3/T
   ------------------                      ------------------------

                                     IN                                         IN
                                     --                                         --
        PRECIPITATION =        1.7882D+08          PRECIPITATION =                  
           STREAMFLOW =                               STREAMFLOW =                  
     GW BOUNDARY FLOW =                         GW BOUNDARY FLOW =                  


                                    OUT                                        OUT
                                    ---                                        ---
   EVAPOTRANSPIRATION =        9.9121D+07     EVAPOTRANSPIRATION =        1465870.18
           STREAMFLOW =        2.3263D+07             STREAMFLOW =         430699.06
     GW BOUNDARY FLOW =                         GW BOUNDARY FLOW =                  

   INFLOWS - OUTFLOWS =        5.6440D+07     INFLOWS - OUTFLOWS =       -1896569.24
             --------                                   --------

 TOTAL STORAGE CHANGE =        5.4850D+07         STORAGE CHANGE =       -1936462.89
       --------------                             --------------
         LAND SURFACE =        4.7223D+07           LAND SURFACE =       -1206516.26
            SOIL ZONE =        1.2672D+07              SOIL ZONE =         211070.95
     UNSATURATED ZONE =       -1999074.90       UNSATURATED ZONE =          -2796.12
       SATURATED ZONE =       -1.1483D+07         SATURATED ZONE =        -178099.59
                LAKES =        8437029.52                  LAKES =        -760121.88

 OVERALL BUDGET ERROR =        1589792.74           BUDGET ERROR =          39893.66


  PERCENT DISCREPANCY =              0.89    PERCENT DISCREPANCY =              2.08



1
 SUMMARY VOLUMETRIC BUDGET FOR GSFLOW 
 DATE: 12 23 1980              CUMULATIVE TIME STEP:      84
 MODFLOW STRESS PERIOD      1     CURRENT TIME STEP:      84     ITERATIONS:       7

 -----------------------------------------------------------------------------------

   CUMULATIVE VOLUMES               L**3   RATES FOR THIS TIME STEP           L**3/T
   ------------------                      ------------------------

                                     IN                                         IN
                                     --                                         --
        PRECIPITATION =        1.8522D+08          PRECIPITATION =        3198161.89
           STREAMFLOW =                               STREAMFLOW =                  
     GW BOUNDARY FLOW =                         GW BOUNDARY FLOW =                  


                                    OUT                                        OUT
                                    ---                                        ---
   EVAPOTRANSPIRATION =        1.0749D+08     EVAPOTRANSPIRATION =        1090118.83
           STREAMFLOW =        2.6316D+07             STREAMFLOW =         443565.59
     GW BOUNDARY FLOW =                         GW BOUNDARY FLOW =                  

   INFLOWS - OUTFLOWS =        5.1409D+07     INFLOWS - OUTFLOWS =        1664477.47
             --------                                   --------

 TOTAL STORAGE CHANGE =        4.9565D+07         STORAGE CHANGE =        1610180.18
       --------------                             --------------
         LAND SURFACE =        4.2129D+07           LAND SURFACE =        -245970.29
            SOIL ZONE =        1.5545D+07              SOIL ZONE =        1327058.70
     UNSATURATED ZONE =       -1884095.94       UNSATURATED ZONE =          62205.13
       SATURATED ZONE =       -1.2407D+07         SATURATED ZONE =         -56617.78
                LAKES =        6182037.86                  LAKES =         523504.41

 OVERALL BUDGET ERROR =        1844418.80           BUDGET ERROR =          54297.29


  PERCENT DISCREPANCY =              1.00    PERCENT DISCREPANCY =              1.71



1
 SUMMARY VOLUMETRIC BUDGET FOR GSFLOW 
 DATE: 12 30 1980              CUMULATIVE TIME STEP:      91
 MODFLOW STRESS PERIOD      1     CURRENT TIME STEP:      91     ITERATIONS:       4

 -----------------------------------------------------------------------------------

   CUMULATIVE VOLUMES               L**3   RATES FOR THIS TIME STEP           L**3/T
   ------------------                      ------------------------

                                     IN                                         IN
                                     --                                         --
        PRECIPITATION =        1.8522D+08          PRECIPITATION =                  
           STREAMFLOW =                               STREAMFLOW =                  
     GW BOUNDARY FLOW =                         GW BOUNDARY FLOW =                  


                                    OUT                                        OUT
                                    ---                                        ---
   EVAPOTRANSPIRATION =        1.1778D+08     EVAPOTRANSPIRATION =        1247955.40
           STREAMFLOW =        2.9399D+07             STREAMFLOW =         445279.78
     GW BOUNDARY FLOW =                         GW BOUNDARY FLOW =                  

   INFLOWS - OUTFLOWS =        3.8037D+07     INFLOWS - OUTFLOWS =       -1693235.18
             --------                                   --------

 TOTAL STORAGE CHANGE =        3.6031D+07         STORAGE CHANGE =       -1713019.31
       --------------                             --------------
         LAND SURFACE =        3.5990D+07           LAND SURFACE =        -559081.80
            SOIL ZONE =        1.3731D+07              SOIL ZONE =        -383683.27
     UNSATURATED ZONE =       -1769437.99       UNSATURATED ZONE =           9608.69
       SATURATED ZONE =       -1.3475D+07         SATURATED ZONE =        -165168.88
                LAKES =        1554920.11                  LAKES =        -614694.06

 OVERALL BUDGET ERROR =        2005908.43           BUDGET ERROR =          19784.13


  PERCENT DISCREPANCY =              1.09    PERCENT DISCREPANCY =              1.16



1
 SUMMARY VOLUMETRIC BUDGET FOR GSFLOW 
 DATE: 01 06 1981              CUMULATIVE TIME STEP:      98
 MODFLOW STRESS PERIOD      1     CURRENT TIME STEP:      98     ITERATIONS:      24

 -----------------------------------------------------------------------------------

   CUMULATIVE VOLUMES               L**3   RATES FOR THIS TIME STEP           L**3/T
   ------------------                      ------------------------

                                     IN                                         IN
                                     --                                         --
        PRECIPITATION =        2.0923D+08          PRECIPITATION =                  
           STREAMFLOW =                               STREAMFLOW =                  
     GW BOUNDARY FLOW =                         GW BOUNDARY FLOW =                  


                                    OUT                                        OUT
                                    ---                                        ---
   EVAPOTRANSPIRATION =        1.2534D+08     EVAPOTRANSPIRATION =        1142081.19
           STREAMFLOW =        3.2519D+07             STREAMFLOW =         445540.84
     GW BOUNDARY FLOW =                         GW BOUNDARY FLOW =                  

   INFLOWS - OUTFLOWS =        5.1364D+07     INFLOWS - OUTFLOWS =       -1587622.03
             --------                                   --------

 TOTAL STORAGE CHANGE =        4.8890D+07         STORAGE CHANGE =       -1613588.25
       --------------                             --------------
         LAND SURFACE =        4.1576D+07           LAND SURFACE =        -362260.72
            SOIL ZONE =        1.6937D+07              SOIL ZONE =        -552219.11
     UNSATURATED ZONE =       -1380132.86       UNSATURATED ZONE =          56516.61
       SATURATED ZONE =       -1.4166D+07         SATURATED ZONE =        -187773.53
                LAKES =        5922946.48                  LAKES =        -567851.50

 OVERALL BUDGET ERROR =        2473568.13           BUDGET ERROR =          25966.22


  PERCENT DISCREPANCY =              1.19    PERCENT DISCREPANCY =              1.62



1
 SUMMARY VOLUMETRIC BUDGET FOR GSFLOW 
 DATE: 01 13 1981              CUMULATIVE TIME STEP:     105
 MODFLOW STRESS PERIOD      1     CURRENT TIME STEP:     105     ITERATIONS:       3

 -----------------------------------------------------------------------------------

   CUMULATIVE VOLUMES               L**3   RATES FOR THIS TIME STEP           L**3/T
   ------------------                      ------------------------

                                     IN                                         IN
                                     --                                         --
        PRECIPITATION =        2.1223D+08          PRECIPITATION =                  
           STREAMFLOW =                               STREAMFLOW =                  
     GW BOUNDARY FLOW =                         GW BOUNDARY FLOW =                  


                                    OUT                                        OUT
                                    ---                                        ---
   EVAPOTRANSPIRATION =        1.3373D+08     EVAPOTRANSPIRATION =        1420748.32
           STREAMFLOW =        3.5650D+07             STREAMFLOW =         457521.16
     GW BOUNDARY FLOW =                         GW BOUNDARY FLOW =                  

   INFLOWS - OUTFLOWS =        4.2845D+07     INFLOWS - OUTFLOWS =       -1878269.48
             --------                                   --------

 TOTAL STORAGE CHANGE =        4.0233D+07         STORAGE CHANGE =       -1895566.18
       --------------                             --------------
         LAND SURFACE =        4.0089D+07           LAND SURFACE =        -485861.71
            SOIL ZONE =        1.4444D+07              SOIL ZONE =        -490218.46
     UNSATURATED ZONE =       -1280914.78       UNSATURATED ZONE =          -6485.30
       SATURATED ZONE =       -1.5400D+07         SATURATED ZONE =        -178751.47
                LAKES =        2380837.45                  LAKES =        -734249.25

 OVERALL BUDGET ERROR =        2611783.43           BUDGET ERROR =          17296.71


  PERCENT DISCREPANCY =              1.24    PERCENT DISCREPANCY =              0.92



1
 SUMMARY VOLUMETRIC BUDGET FOR GSFLOW 
 DATE: 01 20 1981              CUMULATIVE TIME STEP:     112
 MODFLOW STRESS PERIOD      1     CURRENT TIME STEP:     112     ITERATIONS:       9

 -----------------------------------------------------------------------------------

   CUMULATIVE VOLUMES               L**3   RATES FOR THIS TIME STEP           L**3/T
   ------------------                      ------------------------

                                     IN                                         IN
                                     --                                         --
        PRECIPITATION =        2.2423D+08          PRECIPITATION =        6001392.59
           STREAMFLOW =                               STREAMFLOW =                  
     GW BOUNDARY FLOW =                         GW BOUNDARY FLOW =                  


                                    OUT                                        OUT
                                    ---                                        ---
   EVAPOTRANSPIRATION =        1.4486D+08     EVAPOTRANSPIRATION =        1828628.39
           STREAMFLOW =        3.9241D+07             STREAMFLOW =         485521.72
     GW BOUNDARY FLOW =                         GW BOUNDARY FLOW =                  

   INFLOWS - OUTFLOWS =        4.0127D+07     INFLOWS - OUTFLOWS =        3687242.47
             --------                                   --------

 TOTAL STORAGE CHANGE =        3.7289D+07         STORAGE CHANGE =        3549911.44
       --------------                             --------------
         LAND SURFACE =        3.7521D+07           LAND SURFACE =         673026.77
            SOIL ZONE =        1.6061D+07              SOIL ZONE =        1354565.14
     UNSATURATED ZONE =       -1088609.53       UNSATURATED ZONE =          97712.65
       SATURATED ZONE =       -1.6114D+07         SATURATED ZONE =          49197.27
                LAKES =         909055.74                  LAKES =        1375409.62

 OVERALL BUDGET ERROR =        2838273.47           BUDGET ERROR =         137331.03


  PERCENT DISCREPANCY =              1.27    PERCENT DISCREPANCY =              2.31



1
 SUMMARY VOLUMETRIC BUDGET FOR GSFLOW 
 DATE: 01 27 1981              CUMULATIVE TIME STEP:     119
 MODFLOW STRESS PERIOD      1     CURRENT TIME STEP:     119     ITERATIONS:       3

 -----------------------------------------------------------------------------------

   CUMULATIVE VOLUMES               L**3   RATES FOR THIS TIME STEP           L**3/T
   ------------------                      ------------------------

                                     IN                                         IN
                                     --                                         --
        PRECIPITATION =        3.3525D+08          PRECIPITATION =        6.0014D+07
           STREAMFLOW =                               STREAMFLOW =                  
     GW BOUNDARY FLOW =                         GW BOUNDARY FLOW =                  


                                    OUT                                        OUT
                                    ---                                        ---
   EVAPOTRANSPIRATION =        1.5401D+08     EVAPOTRANSPIRATION =         669133.41
           STREAMFLOW =        4.1752D+07             STREAMFLOW =         345812.16
     GW BOUNDARY FLOW =                         GW BOUNDARY FLOW =                  

   INFLOWS - OUTFLOWS =        1.3949D+08     INFLOWS - OUTFLOWS =        5.8999D+07
             --------                                   --------

 TOTAL STORAGE CHANGE =        1.3610D+08         STORAGE CHANGE =        5.8691D+07
       --------------                             --------------
         LAND SURFACE =        1.0747D+08           LAND SURFACE =        4.1072D+07
            SOIL ZONE =        1.7902D+07              SOIL ZONE =        1620607.15
     UNSATURATED ZONE =        -591323.64       UNSATURATED ZONE =          99691.17
       SATURATED ZONE =       -1.6832D+07         SATURATED ZONE =         -40378.11
                LAKES =        2.8157D+07                  LAKES =        1.5939D+07

 OVERALL BUDGET ERROR =        3389795.48           BUDGET ERROR =         307928.76


  PERCENT DISCREPANCY =              1.02    PERCENT DISCREPANCY =              0.51



1
 SUMMARY VOLUMETRIC BUDGET FOR GSFLOW 
 DATE: 02 03 1981              CUMULATIVE TIME STEP:     126
 MODFLOW STRESS PERIOD      1     CURRENT TIME STEP:     126     ITERATIONS:      15

 -----------------------------------------------------------------------------------

   CUMULATIVE VOLUMES               L**3   RATES FOR THIS TIME STEP           L**3/T
   ------------------                      ------------------------

                                     IN                                         IN
                                     --                                         --
        PRECIPITATION =        4.0137D+08          PRECIPITATION =                  
           STREAMFLOW =                               STREAMFLOW =                  
     GW BOUNDARY FLOW =                         GW BOUNDARY FLOW =                  


                                    OUT                                        OUT
                                    ---                                        ---
   EVAPOTRANSPIRATION =        1.5768D+08     EVAPOTRANSPIRATION =         909453.05
           STREAMFLOW =        4.4232D+07             STREAMFLOW =         354891.78
     GW BOUNDARY FLOW =                         GW BOUNDARY FLOW =                  

   INFLOWS - OUTFLOWS =        1.9945D+08     INFLOWS - OUTFLOWS =       -1264344.83
             --------                                   --------

 TOTAL STORAGE CHANGE =        1.9609D+08         STORAGE CHANGE =       -1275993.25
       --------------                             --------------
         LAND SURFACE =        1.5382D+08           LAND SURFACE =        -497697.44
            SOIL ZONE =        1.6930D+07              SOIL ZONE =        -133793.88
     UNSATURATED ZONE =        -294241.64       UNSATURATED ZONE =           7247.04
       SATURATED ZONE =       -1.8021D+07         SATURATED ZONE =        -174354.56
                LAKES =        4.3661D+07                  LAKES =        -477394.41

 OVERALL BUDGET ERROR =        3355334.82           BUDGET ERROR =          11648.42


  PERCENT DISCREPANCY =              0.84    PERCENT DISCREPANCY =              0.92



1
 SUMMARY VOLUMETRIC BUDGET FOR GSFLOW 
 DATE: 02 10 1981              CUMULATIVE TIME STEP:     133
 MODFLOW STRESS PERIOD      1     CURRENT TIME STEP:     133     ITERATIONS:       6

 -----------------------------------------------------------------------------------

   CUMULATIVE VOLUMES               L**3   RATES FOR THIS TIME STEP           L**3/T
   ------------------                      ------------------------

                                     IN                                         IN
                                     --                                         --
        PRECIPITATION =        4.1375D+08          PRECIPITATION =        3095932.43
           STREAMFLOW =                               STREAMFLOW =                  
     GW BOUNDARY FLOW =                         GW BOUNDARY FLOW =                  


                                    OUT                                        OUT
                                    ---                                        ---
   EVAPOTRANSPIRATION =        1.6316D+08     EVAPOTRANSPIRATION =         589052.91
           STREAMFLOW =        4.6626D+07             STREAMFLOW =         340304.91
     GW BOUNDARY FLOW =                         GW BOUNDARY FLOW =                  

   INFLOWS - OUTFLOWS =        2.0396D+08     INFLOWS - OUTFLOWS =        2166574.62
             --------                                   --------

 TOTAL STORAGE CHANGE =        2.0047D+08         STORAGE CHANGE =        2149578.75
       --------------                             --------------
         LAND SURFACE =        1.5941D+08           LAND SURFACE =        1678271.41
            SOIL ZONE =        1.6826D+07              SOIL ZONE =         185536.95
     UNSATURATED ZONE =        -371592.04       UNSATURATED ZONE =         -12378.67
       SATURATED ZONE =       -1.9145D+07         SATURATED ZONE =        -149632.09
                LAKES =        4.3754D+07                  LAKES =         447781.16

 OVERALL BUDGET ERROR =        3488152.79           BUDGET ERROR =          16995.86


  PERCENT DISCREPANCY =              0.85    PERCENT DISCREPANCY =              0.55



1
 SUMMARY VOLUMETRIC BUDGET FOR GSFLOW 
 DATE: 02 17 1981              CUMULATIVE TIME STEP:     140
 MODFLOW STRESS PERIOD      1     CURRENT TIME STEP:     140     ITERATIONS:       6

 -----------------------------------------------------------------------------------

   CUMULATIVE VOLUMES               L**3   RATES FOR THIS TIME STEP           L**3/T
   ------------------                      ------------------------

                                     IN                                         IN
                                     --                                         --
        PRECIPITATION =        4.6328D+08          PRECIPITATION =                  
           STREAMFLOW =                               STREAMFLOW =                  
     GW BOUNDARY FLOW =                         GW BOUNDARY FLOW =                  


                                    OUT                                        OUT
                                    ---                                        ---
   EVAPOTRANSPIRATION =        1.7462D+08     EVAPOTRANSPIRATION =        2683809.70
           STREAMFLOW =        4.8976D+07             STREAMFLOW =         285389.12
     GW BOUNDARY FLOW =                         GW BOUNDARY FLOW =                  

   INFLOWS - OUTFLOWS =        2.3968D+08     INFLOWS - OUTFLOWS =       -2969198.83
             --------                                   --------

 TOTAL STORAGE CHANGE =        2.3574D+08         STORAGE CHANGE =       -2901515.26
       --------------                             --------------
         LAND SURFACE =        1.7506D+08           LAND SURFACE =       -2254149.30
            SOIL ZONE =        2.3375D+07              SOIL ZONE =         -33722.12
     UNSATURATED ZONE =         212605.99       UNSATURATED ZONE =          90160.02
       SATURATED ZONE =       -1.9392D+07         SATURATED ZONE =        -114387.04
                LAKES =        5.6487D+07                  LAKES =        -589416.81

 OVERALL BUDGET ERROR =        3946534.18           BUDGET ERROR =         -67683.57


  PERCENT DISCREPANCY =              0.86    PERCENT DISCREPANCY =             -2.31



1
 SUMMARY VOLUMETRIC BUDGET FOR GSFLOW 
 DATE: 02 24 1981              CUMULATIVE TIME STEP:     147
 MODFLOW STRESS PERIOD      1     CURRENT TIME STEP:     147     ITERATIONS:      12

 -----------------------------------------------------------------------------------

   CUMULATIVE VOLUMES               L**3   RATES FOR THIS TIME STEP           L**3/T
   ------------------                      ------------------------

                                     IN                                         IN
                                     --                                         --
        PRECIPITATION =        4.8805D+08          PRECIPITATION =        1.8576D+07
           STREAMFLOW =                               STREAMFLOW =                  
     GW BOUNDARY FLOW =                         GW BOUNDARY FLOW =                  


                                    OUT                                        OUT
                                    ---                                        ---
   EVAPOTRANSPIRATION =        1.8831D+08     EVAPOTRANSPIRATION =        1370625.38
           STREAMFLOW =        5.0060D+07             STREAMFLOW =         143123.94
     GW BOUNDARY FLOW =                         GW BOUNDARY FLOW =                  

   INFLOWS - OUTFLOWS =        2.4968D+08     INFLOWS - OUTFLOWS =        1.7062D+07
             --------                                   --------

 TOTAL STORAGE CHANGE =        2.4513D+08         STORAGE CHANGE =        1.7035D+07
       --------------                             --------------
         LAND SURFACE =        1.7597D+08           LAND SURFACE =        1.1072D+07
            SOIL ZONE =        2.5720D+07              SOIL ZONE =         477714.26
     UNSATURATED ZONE =       -1596496.51       UNSATURATED ZONE =         262600.83
       SATURATED ZONE =       -1.7899D+07         SATURATED ZONE =          21672.77
                LAKES =        6.2936D+07                  LAKES =        5201100.50

 OVERALL BUDGET ERROR =        4548758.74           BUDGET ERROR =          26670.88


  PERCENT DISCREPANCY =              0.94    PERCENT DISCREPANCY =              0.14



1
 SUMMARY VOLUMETRIC BUDGET FOR GSFLOW 
 DATE: 03 03 1981              CUMULATIVE TIME STEP:     154
 MODFLOW STRESS PERIOD      1     CURRENT TIME STEP:     154     ITERATIONS:      16

 -----------------------------------------------------------------------------------

   CUMULATIVE VOLUMES               L**3   RATES FOR THIS TIME STEP           L**3/T
   ------------------                      ------------------------

                                     IN                                         IN
                                     --                                         --
        PRECIPITATION =        5.0056D+08          PRECIPITATION =                  
           STREAMFLOW =                               STREAMFLOW =                  
     GW BOUNDARY FLOW =                         GW BOUNDARY FLOW =                  


                                    OUT                                        OUT
                                    ---                                        ---
   EVAPOTRANSPIRATION =        1.9705D+08     EVAPOTRANSPIRATION =        2227417.87
           STREAMFLOW =        5.1106D+07             STREAMFLOW =         161574.81
     GW BOUNDARY FLOW =                         GW BOUNDARY FLOW =                  

   INFLOWS - OUTFLOWS =        2.5241D+08     INFLOWS - OUTFLOWS =       -2388992.69
             --------                                   --------

 TOTAL STORAGE CHANGE =        2.4757D+08         STORAGE CHANGE =       -2423878.79
       --------------                             --------------
         LAND SURFACE =        1.7885D+08           LAND SURFACE =       -1096145.58
            SOIL ZONE =        2.3958D+07              SOIL ZONE =        -357056.46
     UNSATURATED ZONE =        -953570.70       UNSATURATED ZONE =         -18472.22
       SATURATED ZONE =       -1.9108D+07         SATURATED ZONE =        -178704.97
                LAKES =        6.4830D+07                  LAKES =        -773499.56

 OVERALL BUDGET ERROR =        4833571.75           BUDGET ERROR =          34886.10


  PERCENT DISCREPANCY =              0.97    PERCENT DISCREPANCY =              1.45



1
 SUMMARY VOLUMETRIC BUDGET FOR GSFLOW 
 DATE: 03 10 1981              CUMULATIVE TIME STEP:     161
 MODFLOW STRESS PERIOD      1     CURRENT TIME STEP:     161     ITERATIONS:      42

 -----------------------------------------------------------------------------------

   CUMULATIVE VOLUMES               L**3   RATES FOR THIS TIME STEP           L**3/T
   ------------------                      ------------------------

                                     IN                                         IN
                                     --                                         --
        PRECIPITATION =        5.0378D+08          PRECIPITATION =        3221591.34
           STREAMFLOW =                               STREAMFLOW =                  
     GW BOUNDARY FLOW =                         GW BOUNDARY FLOW =                  


                                    OUT                                        OUT
                                    ---                                        ---
   EVAPOTRANSPIRATION =        2.1466D+08     EVAPOTRANSPIRATION =        1954830.01
           STREAMFLOW =        5.2250D+07             STREAMFLOW =         163871.41
     GW BOUNDARY FLOW =                         GW BOUNDARY FLOW =                  

   INFLOWS - OUTFLOWS =        2.3688D+08     INFLOWS - OUTFLOWS =        1102889.92
             --------                                   --------

 TOTAL STORAGE CHANGE =        2.3181D+08         STORAGE CHANGE =        1073966.79
       --------------                             --------------
         LAND SURFACE =        1.6676D+08           LAND SURFACE =       -1607197.08
            SOIL ZONE =        2.4476D+07              SOIL ZONE =        1220714.21
     UNSATURATED ZONE =       -1142909.62       UNSATURATED ZONE =          70107.70
       SATURATED ZONE =       -1.9761D+07         SATURATED ZONE =          96178.84
                LAKES =        6.1486D+07                  LAKES =        1294163.12

 OVERALL BUDGET ERROR =        5062289.43           BUDGET ERROR =          28923.13


  PERCENT DISCREPANCY =              1.01    PERCENT DISCREPANCY =              0.90



1
 SUMMARY VOLUMETRIC BUDGET FOR GSFLOW 
 DATE: 03 17 1981              CUMULATIVE TIME STEP:     168
 MODFLOW STRESS PERIOD      1     CURRENT TIME STEP:     168     ITERATIONS:      33

 -----------------------------------------------------------------------------------

   CUMULATIVE VOLUMES               L**3   RATES FOR THIS TIME STEP           L**3/T
   ------------------                      ------------------------

                                     IN                                         IN
                                     --                                         --
        PRECIPITATION =        5.1345D+08          PRECIPITATION =        3221591.34
           STREAMFLOW =                               STREAMFLOW =                  
     GW BOUNDARY FLOW =                         GW BOUNDARY FLOW =                  


                                    OUT                                        OUT
                                    ---                                        ---
   EVAPOTRANSPIRATION =        2.2971D+08     EVAPOTRANSPIRATION =        1072467.18
           STREAMFLOW =        5.3446D+07             STREAMFLOW =         174561.31
     GW BOUNDARY FLOW =                         GW BOUNDARY FLOW =                  

   INFLOWS - OUTFLOWS =        2.3029D+08     INFLOWS - OUTFLOWS =        1974562.84
             --------                                   --------

 TOTAL STORAGE CHANGE =        2.2496D+08         STORAGE CHANGE =        1942112.75
       --------------                             --------------
         LAND SURFACE =        1.6298D+08           LAND SURFACE =        1567731.45
            SOIL ZONE =        2.3598D+07              SOIL ZONE =           4740.28
     UNSATURATED ZONE =       -1105770.46       UNSATURATED ZONE =        -136293.53
       SATURATED ZONE =       -2.0569D+07         SATURATED ZONE =         -10860.70
                LAKES =        6.0053D+07                  LAKES =         516795.25

 OVERALL BUDGET ERROR =        5334916.62           BUDGET ERROR =          32450.09


  PERCENT DISCREPANCY =              1.04    PERCENT DISCREPANCY =              1.01



1
 SUMMARY VOLUMETRIC BUDGET FOR GSFLOW 
 DATE: 03 24 1981              CUMULATIVE TIME STEP:     175
 MODFLOW STRESS PERIOD      1     CURRENT TIME STEP:     175     ITERATIONS:      17

 -----------------------------------------------------------------------------------

   CUMULATIVE VOLUMES               L**3   RATES FOR THIS TIME STEP           L**3/T
   ------------------                      ------------------------

                                     IN                                         IN
                                     --                                         --
        PRECIPITATION =        5.7144D+08          PRECIPITATION =        6443182.67
           STREAMFLOW =                               STREAMFLOW =                  
     GW BOUNDARY FLOW =                         GW BOUNDARY FLOW =                  


                                    OUT                                        OUT
                                    ---                                        ---
   EVAPOTRANSPIRATION =        2.4407D+08     EVAPOTRANSPIRATION =        1744389.69
           STREAMFLOW =        5.4582D+07             STREAMFLOW =         164600.03
     GW BOUNDARY FLOW =                         GW BOUNDARY FLOW =                  

   INFLOWS - OUTFLOWS =        2.7279D+08     INFLOWS - OUTFLOWS =        4534192.95
             --------                                   --------

 TOTAL STORAGE CHANGE =        2.6734D+08         STORAGE CHANGE =        4492509.90
       --------------                             --------------
         LAND SURFACE =        1.9121D+08           LAND SURFACE =        1648492.10
            SOIL ZONE =        2.5716D+07              SOIL ZONE =         747348.41
     UNSATURATED ZONE =        -755661.80       UNSATURATED ZONE =         103374.11
       SATURATED ZONE =       -2.1144D+07         SATURATED ZONE =          41071.41
                LAKES =        7.2307D+07                  LAKES =        1952223.88

 OVERALL BUDGET ERROR =        5449703.53           BUDGET ERROR =          41683.05


  PERCENT DISCREPANCY =              0.96    PERCENT DISCREPANCY =              0.65



1
 SUMMARY VOLUMETRIC BUDGET FOR GSFLOW 
 DATE: 03 31 1981              CUMULATIVE TIME STEP:     182
 MODFLOW STRESS PERIOD      1     CURRENT TIME STEP:     182     ITERATIONS:       7

 -----------------------------------------------------------------------------------

   CUMULATIVE VOLUMES               L**3   RATES FOR THIS TIME STEP           L**3/T
   ------------------                      ------------------------

                                     IN                                         IN
                                     --                                         --
        PRECIPITATION =        6.3587D+08          PRECIPITATION =        6443182.67
           STREAMFLOW =                               STREAMFLOW =                  
     GW BOUNDARY FLOW =                         GW BOUNDARY FLOW =                  


                                    OUT                                        OUT
                                    ---                                        ---
   EVAPOTRANSPIRATION =        2.5898D+08     EVAPOTRANSPIRATION =        1164913.72
           STREAMFLOW =        5.5754D+07             STREAMFLOW =         154067.83
     GW BOUNDARY FLOW =                         GW BOUNDARY FLOW =                  

   INFLOWS - OUTFLOWS =        3.2113D+08     INFLOWS - OUTFLOWS =        5124201.12
             --------                                   --------

 TOTAL STORAGE CHANGE =        3.1573D+08         STORAGE CHANGE =        5064987.13
       --------------                             --------------
         LAND SURFACE =        2.1723D+08           LAND SURFACE =        2850911.63
            SOIL ZONE =        2.7307D+07              SOIL ZONE =         452710.44
     UNSATURATED ZONE =       -4435589.44       UNSATURATED ZONE =         131045.12
       SATURATED ZONE =       -1.7920D+07         SATURATED ZONE =        -108302.80
                LAKES =        9.3544D+07                  LAKES =        1738622.75

 OVERALL BUDGET ERROR =        5406916.44           BUDGET ERROR =          59213.98


  PERCENT DISCREPANCY =              0.85    PERCENT DISCREPANCY =              0.92



1
 SUMMARY VOLUMETRIC BUDGET FOR GSFLOW 
 DATE: 04 07 1981              CUMULATIVE TIME STEP:     189
 MODFLOW STRESS PERIOD      1     CURRENT TIME STEP:     189     ITERATIONS:      51

 -----------------------------------------------------------------------------------

   CUMULATIVE VOLUMES               L**3   RATES FOR THIS TIME STEP           L**3/T
   ------------------                      ------------------------

                                     IN                                         IN
                                     --                                         --
        PRECIPITATION =        6.5328D+08          PRECIPITATION =                  
           STREAMFLOW =                               STREAMFLOW =                  
     GW BOUNDARY FLOW =                         GW BOUNDARY FLOW =                  


                                    OUT                                        OUT
                                    ---                                        ---
   EVAPOTRANSPIRATION =        2.8286D+08     EVAPOTRANSPIRATION =        4389305.70
           STREAMFLOW =        5.6883D+07             STREAMFLOW =         203100.48
     GW BOUNDARY FLOW =                         GW BOUNDARY FLOW =                  

   INFLOWS - OUTFLOWS =        3.1353D+08     INFLOWS - OUTFLOWS =       -4592406.19
             --------                                   --------

 TOTAL STORAGE CHANGE =        3.0789D+08         STORAGE CHANGE =       -4622273.46
       --------------                             --------------
         LAND SURFACE =        1.9636D+08           LAND SURFACE =       -6815335.08
            SOIL ZONE =        2.8264D+07              SOIL ZONE =          67588.10
     UNSATURATED ZONE =       -3274692.02       UNSATURATED ZONE =         231756.05
       SATURATED ZONE =       -1.6860D+07         SATURATED ZONE =         275480.72
                LAKES =        1.0341D+08                  LAKES =        1618236.75

 OVERALL BUDGET ERROR =        5640227.02           BUDGET ERROR =          29867.27


  PERCENT DISCREPANCY =              0.87    PERCENT DISCREPANCY =              0.65



1
 SUMMARY VOLUMETRIC BUDGET FOR GSFLOW 
 DATE: 04 14 1981              CUMULATIVE TIME STEP:     196
 MODFLOW STRESS PERIOD      1     CURRENT TIME STEP:     196     ITERATIONS:      27

 -----------------------------------------------------------------------------------

   CUMULATIVE VOLUMES               L**3   RATES FOR THIS TIME STEP           L**3/T
   ------------------                      ------------------------

                                     IN                                         IN
                                     --                                         --
        PRECIPITATION =        6.5328D+08          PRECIPITATION =                  
           STREAMFLOW =                               STREAMFLOW =                  
     GW BOUNDARY FLOW =                         GW BOUNDARY FLOW =                  


                                    OUT                                        OUT
                                    ---                                        ---
   EVAPOTRANSPIRATION =        3.1306D+08     EVAPOTRANSPIRATION =        5176716.44
           STREAMFLOW =        5.8130D+07             STREAMFLOW =         172000.55
     GW BOUNDARY FLOW =                         GW BOUNDARY FLOW =                  

   INFLOWS - OUTFLOWS =        2.8209D+08     INFLOWS - OUTFLOWS =       -5348716.99
             --------                                   --------

 TOTAL STORAGE CHANGE =        2.7621D+08         STORAGE CHANGE =       -5360230.13
       --------------                             --------------
         LAND SURFACE =        1.5009D+08           LAND SURFACE =       -7639635.76
            SOIL ZONE =        2.4303D+07              SOIL ZONE =        -855173.84
     UNSATURATED ZONE =       -1258618.19       UNSATURATED ZONE =         325143.41
       SATURATED ZONE =       -1.5236D+07         SATURATED ZONE =         277877.56
                LAKES =        1.1832D+08                  LAKES =        2531558.50

 OVERALL BUDGET ERROR =        5874219.48           BUDGET ERROR =          11513.15


  PERCENT DISCREPANCY =              0.90    PERCENT DISCREPANCY =              0.22



1
 SUMMARY VOLUMETRIC BUDGET FOR GSFLOW 
 DATE: 04 21 1981              CUMULATIVE TIME STEP:     203
 MODFLOW STRESS PERIOD      1     CURRENT TIME STEP:     203     ITERATIONS:      23

 -----------------------------------------------------------------------------------

   CUMULATIVE VOLUMES               L**3   RATES FOR THIS TIME STEP           L**3/T
   ------------------                      ------------------------

                                     IN                                         IN
                                     --                                         --
        PRECIPITATION =        6.7418D+08          PRECIPITATION =                  
           STREAMFLOW =                               STREAMFLOW =                  
     GW BOUNDARY FLOW =                         GW BOUNDARY FLOW =                  


                                    OUT                                        OUT
                                    ---                                        ---
   EVAPOTRANSPIRATION =        3.4315D+08     EVAPOTRANSPIRATION =        5667258.69
           STREAMFLOW =        5.9345D+07             STREAMFLOW =         169579.17
     GW BOUNDARY FLOW =                         GW BOUNDARY FLOW =                  

   INFLOWS - OUTFLOWS =        2.7169D+08     INFLOWS - OUTFLOWS =       -5836837.86
             --------                                   --------

 TOTAL STORAGE CHANGE =        2.6605D+08         STORAGE CHANGE =       -5844466.40
       --------------                             --------------
         LAND SURFACE =        1.2707D+08           LAND SURFACE =       -3302133.36
            SOIL ZONE =        2.2510D+07              SOIL ZONE =       -2016217.82
     UNSATURATED ZONE =         366524.08       UNSATURATED ZONE =         141985.60
       SATURATED ZONE =       -1.5284D+07         SATURATED ZONE =         -77376.56
                LAKES =        1.3139D+08                  LAKES =        -590724.25

 OVERALL BUDGET ERROR =        5631816.23           BUDGET ERROR =           7628.53


  PERCENT DISCREPANCY =              0.84    PERCENT DISCREPANCY =              0.13



1
 SUMMARY VOLUMETRIC BUDGET FOR GSFLOW 
 DATE: 04 28 1981              CUMULATIVE TIME STEP:     210
 MODFLOW STRESS PERIOD      1     CURRENT TIME STEP:     210     ITERATIONS:      36

 -----------------------------------------------------------------------------------

   CUMULATIVE VOLUMES               L**3   RATES FOR THIS TIME STEP           L**3/T
   ------------------                      ------------------------

                                     IN                                         IN
                                     --                                         --
        PRECIPITATION =        6.8114D+08          PRECIPITATION =                  
           STREAMFLOW =                               STREAMFLOW =                  
     GW BOUNDARY FLOW =                         GW BOUNDARY FLOW =                  


                                    OUT                                        OUT
                                    ---                                        ---
   EVAPOTRANSPIRATION =        3.8510D+08     EVAPOTRANSPIRATION =        5756792.11
           STREAMFLOW =        6.0557D+07             STREAMFLOW =         169029.37
     GW BOUNDARY FLOW =                         GW BOUNDARY FLOW =                  

   INFLOWS - OUTFLOWS =        2.3549D+08     INFLOWS - OUTFLOWS =       -5925821.48
             --------                                   --------

 TOTAL STORAGE CHANGE =        2.2981D+08         STORAGE CHANGE =       -5934905.12
       --------------                             --------------
         LAND SURFACE =        1.0063D+08           LAND SURFACE =       -4252967.25
            SOIL ZONE =        1.2685D+07              SOIL ZONE =       -1643513.82
     UNSATURATED ZONE =         492685.91       UNSATURATED ZONE =         -51338.58
       SATURATED ZONE =       -1.5340D+07         SATURATED ZONE =          85312.66
                LAKES =        1.3135D+08                  LAKES =         -72398.12

 OVERALL BUDGET ERROR =        5679489.98           BUDGET ERROR =           9083.63


  PERCENT DISCREPANCY =              0.84    PERCENT DISCREPANCY =              0.15



1
 SUMMARY VOLUMETRIC BUDGET FOR GSFLOW 
 DATE: 05 05 1981              CUMULATIVE TIME STEP:     217
 MODFLOW STRESS PERIOD      1     CURRENT TIME STEP:     217     ITERATIONS:      52

 -----------------------------------------------------------------------------------

   CUMULATIVE VOLUMES               L**3   RATES FOR THIS TIME STEP           L**3/T
   ------------------                      ------------------------

                                     IN                                         IN
                                     --                                         --
        PRECIPITATION =        6.8811D+08          PRECIPITATION =                  
           STREAMFLOW =                               STREAMFLOW =                  
     GW BOUNDARY FLOW =                         GW BOUNDARY FLOW =                  


                                    OUT                                        OUT
                                    ---                                        ---
   EVAPOTRANSPIRATION =        4.2395D+08     EVAPOTRANSPIRATION =        3890240.67
           STREAMFLOW =        6.1774D+07             STREAMFLOW =         173796.00
     GW BOUNDARY FLOW =                         GW BOUNDARY FLOW =                  

   INFLOWS - OUTFLOWS =        2.0239D+08     INFLOWS - OUTFLOWS =       -4064036.67
             --------                                   --------

 TOTAL STORAGE CHANGE =        1.9669D+08         STORAGE CHANGE =       -4061485.77
       --------------                             --------------
         LAND SURFACE =        7.3996D+07           LAND SURFACE =       -3142859.36
            SOIL ZONE =        6162745.40              SOIL ZONE =        -903771.04
     UNSATURATED ZONE =       -1055194.77       UNSATURATED ZONE =        -104772.16
       SATURATED ZONE =       -1.4533D+07         SATURATED ZONE =         -30699.45
                LAKES =        1.3212D+08                  LAKES =         120616.25

 OVERALL BUDGET ERROR =        5697485.10           BUDGET ERROR =          -2550.90


  PERCENT DISCREPANCY =              0.83    PERCENT DISCREPANCY =             -0.06



1
 SUMMARY VOLUMETRIC BUDGET FOR GSFLOW 
 DATE: 05 12 1981              CUMULATIVE TIME STEP:     224
 MODFLOW STRESS PERIOD      1     CURRENT TIME STEP:     224     ITERATIONS:      59

 -----------------------------------------------------------------------------------

   CUMULATIVE VOLUMES               L**3   RATES FOR THIS TIME STEP           L**3/T
   ------------------                      ------------------------

                                     IN                                         IN
                                     --                                         --
        PRECIPITATION =        6.8811D+08          PRECIPITATION =                  
           STREAMFLOW =                               STREAMFLOW =                  
     GW BOUNDARY FLOW =                         GW BOUNDARY FLOW =                  


                                    OUT                                        OUT
                                    ---                                        ---
   EVAPOTRANSPIRATION =        4.5347D+08     EVAPOTRANSPIRATION =        4689407.83
           STREAMFLOW =        6.2971D+07             STREAMFLOW =         168853.17
     GW BOUNDARY FLOW =                         GW BOUNDARY FLOW =                  

   INFLOWS - OUTFLOWS =        1.7167D+08     INFLOWS - OUTFLOWS =       -4858261.00
             --------                                   --------

 TOTAL STORAGE CHANGE =        1.6597D+08         STORAGE CHANGE =       -4860529.78
       --------------                             --------------
         LAND SURFACE =        4.9094D+07           LAND SURFACE =       -3677638.49
            SOIL ZONE =        -355860.41              SOIL ZONE =        -936367.97
     UNSATURATED ZONE =       -3771743.44       UNSATURATED ZONE =        -942786.90
       SATURATED ZONE =       -1.3220D+07         SATURATED ZONE =         522397.81
                LAKES =        1.3422D+08                  LAKES =         173865.77

 OVERALL BUDGET ERROR =        5704373.92           BUDGET ERROR =           2268.78


  PERCENT DISCREPANCY =              0.83    PERCENT DISCREPANCY =              0.05



1
 SUMMARY VOLUMETRIC BUDGET FOR GSFLOW 
 DATE: 05 19 1981              CUMULATIVE TIME STEP:     231
 MODFLOW STRESS PERIOD      1     CURRENT TIME STEP:     231     ITERATIONS:      48

 -----------------------------------------------------------------------------------

   CUMULATIVE VOLUMES               L**3   RATES FOR THIS TIME STEP           L**3/T
   ------------------                      ------------------------

                                     IN                                         IN
                                     --                                         --
        PRECIPITATION =        7.4671D+08          PRECIPITATION =        3447112.78
           STREAMFLOW =                               STREAMFLOW =                  
     GW BOUNDARY FLOW =                         GW BOUNDARY FLOW =                  


                                    OUT                                        OUT
                                    ---                                        ---
   EVAPOTRANSPIRATION =        4.7187D+08     EVAPOTRANSPIRATION =        1743246.03
           STREAMFLOW =        6.4161D+07             STREAMFLOW =         172527.06
     GW BOUNDARY FLOW =                         GW BOUNDARY FLOW =                  

   INFLOWS - OUTFLOWS =        2.1068D+08     INFLOWS - OUTFLOWS =        1531339.69
             --------                                   --------

 TOTAL STORAGE CHANGE =        2.0497D+08         STORAGE CHANGE =        1520513.31
       --------------                             --------------
         LAND SURFACE =        5.2560D+07           LAND SURFACE =       -3316295.82
            SOIL ZONE =        1.0612D+07              SOIL ZONE =        1983421.54
     UNSATURATED ZONE =       -3948052.95       UNSATURATED ZONE =          50309.39
       SATURATED ZONE =       -1.2907D+07         SATURATED ZONE =          25221.70
                LAKES =        1.5866D+08                  LAKES =        2777856.50

 OVERALL BUDGET ERROR =        5703776.46           BUDGET ERROR =          10826.38


  PERCENT DISCREPANCY =              0.77    PERCENT DISCREPANCY =              0.31



1
 SUMMARY VOLUMETRIC BUDGET FOR GSFLOW 
 DATE: 05 26 1981              CUMULATIVE TIME STEP:     238
 MODFLOW STRESS PERIOD      1     CURRENT TIME STEP:     238     ITERATIONS:      53

 -----------------------------------------------------------------------------------

   CUMULATIVE VOLUMES               L**3   RATES FOR THIS TIME STEP           L**3/T
   ------------------                      ------------------------

                                     IN                                         IN
                                     --                                         --
        PRECIPITATION =        7.7429D+08          PRECIPITATION =        1.7236D+07
           STREAMFLOW =                               STREAMFLOW =                  
     GW BOUNDARY FLOW =                         GW BOUNDARY FLOW =                  


                                    OUT                                        OUT
                                    ---                                        ---
   EVAPOTRANSPIRATION =        5.0321D+08     EVAPOTRANSPIRATION =        2634135.82
           STREAMFLOW =        6.5363D+07             STREAMFLOW =         180466.05
     GW BOUNDARY FLOW =                         GW BOUNDARY FLOW =                  

   INFLOWS - OUTFLOWS =        2.0572D+08     INFLOWS - OUTFLOWS =        1.4421D+07
             --------                                   --------

 TOTAL STORAGE CHANGE =        1.9999D+08         STORAGE CHANGE =        1.4415D+07
       --------------                             --------------
         LAND SURFACE =        3.5549D+07           LAND SURFACE =        -311649.70
            SOIL ZONE =        9182355.97              SOIL ZONE =        4566173.69
     UNSATURATED ZONE =       -3823766.80       UNSATURATED ZONE =          69021.26
       SATURATED ZONE =       -1.2385D+07         SATURATED ZONE =         580137.69
                LAKES =        1.7146D+08                  LAKES =        9511273.00

 OVERALL BUDGET ERROR =        5730891.32           BUDGET ERROR =           6005.85


  PERCENT DISCREPANCY =              0.74    PERCENT DISCREPANCY =              0.03



1
 SUMMARY VOLUMETRIC BUDGET FOR GSFLOW 
 DATE: 06 02 1981              CUMULATIVE TIME STEP:     245
 MODFLOW STRESS PERIOD      1     CURRENT TIME STEP:     245     ITERATIONS:      37

 -----------------------------------------------------------------------------------

   CUMULATIVE VOLUMES               L**3   RATES FOR THIS TIME STEP           L**3/T
   ------------------                      ------------------------

                                     IN                                         IN
                                     --                                         --
        PRECIPITATION =        7.7429D+08          PRECIPITATION =                  
           STREAMFLOW =                               STREAMFLOW =                  
     GW BOUNDARY FLOW =                         GW BOUNDARY FLOW =                  


                                    OUT                                        OUT
                                    ---                                        ---
   EVAPOTRANSPIRATION =        5.4447D+08     EVAPOTRANSPIRATION =        5931893.23
           STREAMFLOW =        6.6583D+07             STREAMFLOW =         178725.95
     GW BOUNDARY FLOW =                         GW BOUNDARY FLOW =                  

   INFLOWS - OUTFLOWS =        1.6324D+08     INFLOWS - OUTFLOWS =       -6110619.18
             --------                                   --------

 TOTAL STORAGE CHANGE =        1.5751D+08         STORAGE CHANGE =       -6111618.07
       --------------                             --------------
         LAND SURFACE =        2.1595D+07           LAND SURFACE =       -1680702.72
            SOIL ZONE =       -6626130.37              SOIL ZONE =       -1910250.13
     UNSATURATED ZONE =       -8587113.28       UNSATURATED ZONE =        -217639.21
       SATURATED ZONE =       -1.0810D+07         SATURATED ZONE =        -227000.88
                LAKES =        1.6194D+08                  LAKES =       -2076025.12

 OVERALL BUDGET ERROR =        5730294.72           BUDGET ERROR =            998.89


  PERCENT DISCREPANCY =              0.74    PERCENT DISCREPANCY =              0.02



1
 SUMMARY VOLUMETRIC BUDGET FOR GSFLOW 
 DATE: 06 09 1981              CUMULATIVE TIME STEP:     252
 MODFLOW STRESS PERIOD      1     CURRENT TIME STEP:     252     ITERATIONS:      52

 -----------------------------------------------------------------------------------

   CUMULATIVE VOLUMES               L**3   RATES FOR THIS TIME STEP           L**3/T
   ------------------                      ------------------------

                                     IN                                         IN
                                     --                                         --
        PRECIPITATION =        7.7752D+08          PRECIPITATION =                  
           STREAMFLOW =                               STREAMFLOW =                  
     GW BOUNDARY FLOW =                         GW BOUNDARY FLOW =                  


                                    OUT                                        OUT
                                    ---                                        ---
   EVAPOTRANSPIRATION =        5.8239D+08     EVAPOTRANSPIRATION =        5627519.53
           STREAMFLOW =        6.7826D+07             STREAMFLOW =         203133.83
     GW BOUNDARY FLOW =                         GW BOUNDARY FLOW =                  

   INFLOWS - OUTFLOWS =        1.2731D+08     INFLOWS - OUTFLOWS =       -5830653.36
             --------                                   --------

 TOTAL STORAGE CHANGE =        1.2157D+08         STORAGE CHANGE =       -5826935.16
       --------------                             --------------
         LAND SURFACE =        1.1147D+07           LAND SURFACE =       -1086014.00
            SOIL ZONE =       -1.7376D+07              SOIL ZONE =       -1809139.33
     UNSATURATED ZONE =       -1.0169D+07       UNSATURATED ZONE =        -275665.00
       SATURATED ZONE =       -1.1987D+07         SATURATED ZONE =        -221520.84
                LAKES =        1.4995D+08                  LAKES =       -2434596.00

 OVERALL BUDGET ERROR =        5736874.27           BUDGET ERROR =          -3718.20


  PERCENT DISCREPANCY =              0.74    PERCENT DISCREPANCY =             -0.06



1
 SUMMARY VOLUMETRIC BUDGET FOR GSFLOW 
 DATE: 06 16 1981              CUMULATIVE TIME STEP:     259
 MODFLOW STRESS PERIOD      1     CURRENT TIME STEP:     259     ITERATIONS:      26

 -----------------------------------------------------------------------------------

   CUMULATIVE VOLUMES               L**3   RATES FOR THIS TIME STEP           L**3/T
   ------------------                      ------------------------

                                     IN                                         IN
                                     --                                         --
        PRECIPITATION =        7.7752D+08          PRECIPITATION =                  
           STREAMFLOW =                               STREAMFLOW =                  
     GW BOUNDARY FLOW =                         GW BOUNDARY FLOW =                  


                                    OUT                                        OUT
                                    ---                                        ---
   EVAPOTRANSPIRATION =        6.1155D+08     EVAPOTRANSPIRATION =        4953342.86
           STREAMFLOW =        7.0934D+07             STREAMFLOW =         702199.94
     GW BOUNDARY FLOW =                         GW BOUNDARY FLOW =                  

   INFLOWS - OUTFLOWS =        9.5039D+07     INFLOWS - OUTFLOWS =       -5655542.80
             --------                                   --------

 TOTAL STORAGE CHANGE =        8.9329D+07         STORAGE CHANGE =       -5664667.83
       --------------                             --------------
[...]
       SATURATED ZONE =       -6.7801D+07         SATURATED ZONE =        -202406.20
                LAKES =        7.0889D+08                  LAKES =       -4133667.00

 OVERALL BUDGET ERROR =        3.1399D+07           BUDGET ERROR =           1163.45


  PERCENT DISCREPANCY =              0.58    PERCENT DISCREPANCY =              0.03



1
 SUMMARY VOLUMETRIC BUDGET FOR GSFLOW 
 DATE: 11 29 1983              CUMULATIVE TIME STEP:    1155
 MODFLOW STRESS PERIOD      1     CURRENT TIME STEP:    1155     ITERATIONS:       3

 -----------------------------------------------------------------------------------

   CUMULATIVE VOLUMES               L**3   RATES FOR THIS TIME STEP           L**3/T
   ------------------                      ------------------------

                                     IN                                         IN
                                     --                                         --
        PRECIPITATION =        5.5463D+09          PRECIPITATION =        6461469.31
           STREAMFLOW =                               STREAMFLOW =                  
     GW BOUNDARY FLOW =                         GW BOUNDARY FLOW =                  


                                    OUT                                        OUT
                                    ---                                        ---
   EVAPOTRANSPIRATION =        2.9376D+09     EVAPOTRANSPIRATION =         359622.14
           STREAMFLOW =        1.6168D+09             STREAMFLOW =        4966705.50
     GW BOUNDARY FLOW =                         GW BOUNDARY FLOW =                  

   INFLOWS - OUTFLOWS =        9.9180D+08     INFLOWS - OUTFLOWS =        1135141.66
             --------                                   --------

 TOTAL STORAGE CHANGE =        9.6026D+08         STORAGE CHANGE =        1117417.87
       --------------                             --------------
         LAND SURFACE =        3.3601D+08           LAND SURFACE =        4614418.78
            SOIL ZONE =        4986075.28              SOIL ZONE =         -69717.63
     UNSATURATED ZONE =       -1.4312D+07       UNSATURATED ZONE =          31696.91
       SATURATED ZONE =       -6.9041D+07         SATURATED ZONE =        -173928.94
                LAKES =        7.0262D+08                  LAKES =       -3285051.25

 OVERALL BUDGET ERROR =        3.1543D+07           BUDGET ERROR =          17723.79


  PERCENT DISCREPANCY =              0.57    PERCENT DISCREPANCY =              0.27



1
 SUMMARY VOLUMETRIC BUDGET FOR GSFLOW 
 DATE: 12 06 1983              CUMULATIVE TIME STEP:    1162
 MODFLOW STRESS PERIOD      1     CURRENT TIME STEP:    1162     ITERATIONS:      13

 -----------------------------------------------------------------------------------

   CUMULATIVE VOLUMES               L**3   RATES FOR THIS TIME STEP           L**3/T
   ------------------                      ------------------------

                                     IN                                         IN
                                     --                                         --
        PRECIPITATION =        5.6038D+09          PRECIPITATION =        3198161.89
           STREAMFLOW =                               STREAMFLOW =                  
     GW BOUNDARY FLOW =                         GW BOUNDARY FLOW =                  


                                    OUT                                        OUT
                                    ---                                        ---
   EVAPOTRANSPIRATION =        2.9414D+09     EVAPOTRANSPIRATION =         189207.33
           STREAMFLOW =        1.6522D+09             STREAMFLOW =        5064639.00
     GW BOUNDARY FLOW =                         GW BOUNDARY FLOW =                  

   INFLOWS - OUTFLOWS =        1.0102D+09     INFLOWS - OUTFLOWS =       -2055684.44
             --------                                   --------

 TOTAL STORAGE CHANGE =        9.7853D+08         STORAGE CHANGE =       -2083134.67
       --------------                             --------------
         LAND SURFACE =        3.7453D+08           LAND SURFACE =        2297029.22
            SOIL ZONE =        5533105.81              SOIL ZONE =        -127123.96
     UNSATURATED ZONE =       -1.4094D+07       UNSATURATED ZONE =         -13711.95
       SATURATED ZONE =       -7.0029D+07         SATURATED ZONE =        -116650.48
                LAKES =        6.8259D+08                  LAKES =       -4122677.50

 OVERALL BUDGET ERROR =        3.1684D+07           BUDGET ERROR =          27450.23


  PERCENT DISCREPANCY =              0.57    PERCENT DISCREPANCY =              0.52



1
 SUMMARY VOLUMETRIC BUDGET FOR GSFLOW 
 DATE: 12 13 1983              CUMULATIVE TIME STEP:    1169
 MODFLOW STRESS PERIOD      1     CURRENT TIME STEP:    1169     ITERATIONS:       2

 -----------------------------------------------------------------------------------

   CUMULATIVE VOLUMES               L**3   RATES FOR THIS TIME STEP           L**3/T
   ------------------                      ------------------------

                                     IN                                         IN
                                     --                                         --
        PRECIPITATION =        5.6998D+09          PRECIPITATION =        9594484.95
           STREAMFLOW =                               STREAMFLOW =                  
     GW BOUNDARY FLOW =                         GW BOUNDARY FLOW =                  


                                    OUT                                        OUT
                                    ---                                        ---
   EVAPOTRANSPIRATION =        2.9452D+09     EVAPOTRANSPIRATION =         228999.28
           STREAMFLOW =        1.6892D+09             STREAMFLOW =        5260512.00
     GW BOUNDARY FLOW =                         GW BOUNDARY FLOW =                  

   INFLOWS - OUTFLOWS =        1.0654D+09     INFLOWS - OUTFLOWS =        4104973.66
             --------                                   --------

 TOTAL STORAGE CHANGE =        1.0335D+09         STORAGE CHANGE =        4102282.52
       --------------                             --------------
         LAND SURFACE =        4.3881D+08           LAND SURFACE =        7023337.24
            SOIL ZONE =        6770697.57              SOIL ZONE =        -179829.46
     UNSATURATED ZONE =       -1.3556D+07       UNSATURATED ZONE =          54016.25
       SATURATED ZONE =       -7.0847D+07         SATURATED ZONE =        -181225.77
                LAKES =        6.7234D+08                  LAKES =       -2614015.75

 OVERALL BUDGET ERROR =        3.1901D+07           BUDGET ERROR =           2691.14


  PERCENT DISCREPANCY =              0.56    PERCENT DISCREPANCY =              0.03



1
 SUMMARY VOLUMETRIC BUDGET FOR GSFLOW 
 DATE: 12 20 1983              CUMULATIVE TIME STEP:    1176
 MODFLOW STRESS PERIOD      1     CURRENT TIME STEP:    1176     ITERATIONS:       2

 -----------------------------------------------------------------------------------

   CUMULATIVE VOLUMES               L**3   RATES FOR THIS TIME STEP           L**3/T
   ------------------                      ------------------------

                                     IN                                         IN
                                     --                                         --
        PRECIPITATION =        5.7158D+09          PRECIPITATION =                  
           STREAMFLOW =                               STREAMFLOW =                  
     GW BOUNDARY FLOW =                         GW BOUNDARY FLOW =                  


                                    OUT                                        OUT
                                    ---                                        ---
   EVAPOTRANSPIRATION =        2.9531D+09     EVAPOTRANSPIRATION =         342089.01
           STREAMFLOW =        1.7277D+09             STREAMFLOW =        5578472.50
     GW BOUNDARY FLOW =                         GW BOUNDARY FLOW =                  

   INFLOWS - OUTFLOWS =        1.0350D+09     INFLOWS - OUTFLOWS =       -5920561.51
             --------                                   --------

 TOTAL STORAGE CHANGE =        1.0028D+09         STORAGE CHANGE =       -5935948.34
       --------------                             --------------
         LAND SURFACE =        4.4222D+08           LAND SURFACE =        -213865.81
            SOIL ZONE =        7497441.99              SOIL ZONE =        -177687.85
     UNSATURATED ZONE =       -1.3255D+07       UNSATURATED ZONE =          48448.03
       SATURATED ZONE =       -7.1804D+07         SATURATED ZONE =        -187362.70
                LAKES =        6.3819D+08                  LAKES =       -5405480.00

 OVERALL BUDGET ERROR =        3.2128D+07           BUDGET ERROR =          15386.83


  PERCENT DISCREPANCY =              0.56    PERCENT DISCREPANCY =              0.26



1
 SUMMARY VOLUMETRIC BUDGET FOR GSFLOW 
 DATE: 12 27 1983              CUMULATIVE TIME STEP:    1183
 MODFLOW STRESS PERIOD      1     CURRENT TIME STEP:    1183     ITERATIONS:      28

 -----------------------------------------------------------------------------------

   CUMULATIVE VOLUMES               L**3   RATES FOR THIS TIME STEP           L**3/T
   ------------------                      ------------------------

                                     IN                                         IN
                                     --                                         --
        PRECIPITATION =        5.8917D+09          PRECIPITATION =        9594484.95
           STREAMFLOW =                               STREAMFLOW =                  
     GW BOUNDARY FLOW =                         GW BOUNDARY FLOW =                  


                                    OUT                                        OUT
                                    ---                                        ---
   EVAPOTRANSPIRATION =        2.9554D+09     EVAPOTRANSPIRATION =         405340.39
           STREAMFLOW =        1.7667D+09             STREAMFLOW =        5677393.00
     GW BOUNDARY FLOW =                         GW BOUNDARY FLOW =                  

   INFLOWS - OUTFLOWS =        1.1696D+09     INFLOWS - OUTFLOWS =        3511751.55
             --------                                   --------

 TOTAL STORAGE CHANGE =        1.1371D+09         STORAGE CHANGE =        3446676.22
       --------------                             --------------
         LAND SURFACE =        5.6722D+08           LAND SURFACE =        5883791.66
            SOIL ZONE =        8222199.31              SOIL ZONE =         228106.95
     UNSATURATED ZONE =       -1.2880D+07       UNSATURATED ZONE =         105404.20
       SATURATED ZONE =       -7.2536D+07         SATURATED ZONE =         -95948.84
                LAKES =        6.4712D+08                  LAKES =       -2674677.75

 OVERALL BUDGET ERROR =        3.2439D+07           BUDGET ERROR =          65075.33


  PERCENT DISCREPANCY =              0.55    PERCENT DISCREPANCY =              0.68



1
 SUMMARY VOLUMETRIC BUDGET FOR GSFLOW 
 DATE: 01 03 1984              CUMULATIVE TIME STEP:    1190
 MODFLOW STRESS PERIOD      1     CURRENT TIME STEP:    1190     ITERATIONS:       4

 -----------------------------------------------------------------------------------

   CUMULATIVE VOLUMES               L**3   RATES FOR THIS TIME STEP           L**3/T
   ------------------                      ------------------------

                                     IN                                         IN
                                     --                                         --
        PRECIPITATION =        5.9235D+09          PRECIPITATION =                  
           STREAMFLOW =                               STREAMFLOW =                  
     GW BOUNDARY FLOW =                         GW BOUNDARY FLOW =                  


                                    OUT                                        OUT
                                    ---                                        ---
   EVAPOTRANSPIRATION =        2.9619D+09     EVAPOTRANSPIRATION =        1486104.56
           STREAMFLOW =        1.8063D+09             STREAMFLOW =        5603065.50
     GW BOUNDARY FLOW =                         GW BOUNDARY FLOW =                  

   INFLOWS - OUTFLOWS =        1.1553D+09     INFLOWS - OUTFLOWS =       -7089170.06
             --------                                   --------

 TOTAL STORAGE CHANGE =        1.1229D+09         STORAGE CHANGE =       -7122397.66
       --------------                             --------------
         LAND SURFACE =        5.8049D+08           LAND SURFACE =        -951131.12
            SOIL ZONE =        8932475.69              SOIL ZONE =        -188360.85
     UNSATURATED ZONE =       -1.2429D+07       UNSATURATED ZONE =          10273.96
       SATURATED ZONE =       -7.3410D+07         SATURATED ZONE =        -193732.16
                LAKES =        6.1930D+08                  LAKES =       -5799447.50

 OVERALL BUDGET ERROR =        3.2381D+07           BUDGET ERROR =          33227.60


  PERCENT DISCREPANCY =              0.55    PERCENT DISCREPANCY =              0.47



1
 SUMMARY VOLUMETRIC BUDGET FOR GSFLOW 
 DATE: 01 10 1984              CUMULATIVE TIME STEP:    1197
 MODFLOW STRESS PERIOD      1     CURRENT TIME STEP:    1197     ITERATIONS:       7

 -----------------------------------------------------------------------------------

   CUMULATIVE VOLUMES               L**3   RATES FOR THIS TIME STEP           L**3/T
   ------------------                      ------------------------

                                     IN                                         IN
                                     --                                         --
        PRECIPITATION =        5.9235D+09          PRECIPITATION =                  
           STREAMFLOW =                               STREAMFLOW =                  
     GW BOUNDARY FLOW =                         GW BOUNDARY FLOW =                  


                                    OUT                                        OUT
                                    ---                                        ---
   EVAPOTRANSPIRATION =        2.9746D+09     EVAPOTRANSPIRATION =        1775983.64
           STREAMFLOW =        1.8438D+09             STREAMFLOW =        5235933.50
     GW BOUNDARY FLOW =                         GW BOUNDARY FLOW =                  

   INFLOWS - OUTFLOWS =        1.1051D+09     INFLOWS - OUTFLOWS =       -7011917.14
             --------                                   --------

 TOTAL STORAGE CHANGE =        1.0725D+09         STORAGE CHANGE =       -7048607.95
       --------------                             --------------
         LAND SURFACE =        5.6881D+08           LAND SURFACE =       -1899310.74
            SOIL ZONE =        9900642.28              SOIL ZONE =         271478.75
     UNSATURATED ZONE =       -1.2411D+07       UNSATURATED ZONE =          24302.07
       SATURATED ZONE =       -7.4338D+07         SATURATED ZONE =         -98824.03
                LAKES =        5.8050D+08                  LAKES =       -5346254.00

 OVERALL BUDGET ERROR =        3.2586D+07           BUDGET ERROR =          36690.82


  PERCENT DISCREPANCY =              0.55    PERCENT DISCREPANCY =              0.52



1
 SUMMARY VOLUMETRIC BUDGET FOR GSFLOW 
 DATE: 01 17 1984              CUMULATIVE TIME STEP:    1204
 MODFLOW STRESS PERIOD      1     CURRENT TIME STEP:    1204     ITERATIONS:       3

 -----------------------------------------------------------------------------------

   CUMULATIVE VOLUMES               L**3   RATES FOR THIS TIME STEP           L**3/T
   ------------------                      ------------------------

                                     IN                                         IN
                                     --                                         --
        PRECIPITATION =        5.9475D+09          PRECIPITATION =                  
           STREAMFLOW =                               STREAMFLOW =                  
     GW BOUNDARY FLOW =                         GW BOUNDARY FLOW =                  


                                    OUT                                        OUT
                                    ---                                        ---
   EVAPOTRANSPIRATION =        2.9785D+09     EVAPOTRANSPIRATION =         519947.75
           STREAMFLOW =        1.8795D+09             STREAMFLOW =        5015584.50
     GW BOUNDARY FLOW =                         GW BOUNDARY FLOW =                  

   INFLOWS - OUTFLOWS =        1.0895D+09     INFLOWS - OUTFLOWS =       -5535532.25
             --------                                   --------

 TOTAL STORAGE CHANGE =        1.0568D+09         STORAGE CHANGE =       -5553094.55
       --------------                             --------------
         LAND SURFACE =        5.8433D+08           LAND SURFACE =        -355918.57
            SOIL ZONE =        8954821.31              SOIL ZONE =         -94411.27
     UNSATURATED ZONE =       -1.2333D+07       UNSATURATED ZONE =           1135.26
       SATURATED ZONE =       -7.5409D+07         SATURATED ZONE =        -161752.47
                LAKES =        5.5130D+08                  LAKES =       -4942147.50

 OVERALL BUDGET ERROR =        3.2671D+07           BUDGET ERROR =          17562.31


  PERCENT DISCREPANCY =              0.55    PERCENT DISCREPANCY =              0.32



1
 SUMMARY VOLUMETRIC BUDGET FOR GSFLOW 
 DATE: 01 24 1984              CUMULATIVE TIME STEP:    1211
 MODFLOW STRESS PERIOD      1     CURRENT TIME STEP:    1211     ITERATIONS:       4

 -----------------------------------------------------------------------------------

   CUMULATIVE VOLUMES               L**3   RATES FOR THIS TIME STEP           L**3/T
   ------------------                      ------------------------

                                     IN                                         IN
                                     --                                         --
        PRECIPITATION =        5.9535D+09          PRECIPITATION =                  
           STREAMFLOW =                               STREAMFLOW =                  
     GW BOUNDARY FLOW =                         GW BOUNDARY FLOW =                  


                                    OUT                                        OUT
                                    ---                                        ---
   EVAPOTRANSPIRATION =        2.9840D+09     EVAPOTRANSPIRATION =        1073925.05
           STREAMFLOW =        1.9143D+09             STREAMFLOW =        4917690.00
     GW BOUNDARY FLOW =                         GW BOUNDARY FLOW =                  

   INFLOWS - OUTFLOWS =        1.0552D+09     INFLOWS - OUTFLOWS =       -5991615.05
             --------                                   --------

 TOTAL STORAGE CHANGE =        1.0225D+09         STORAGE CHANGE =       -6009665.23
       --------------                             --------------
         LAND SURFACE =        5.8574D+08           LAND SURFACE =        -567657.68
            SOIL ZONE =        8454288.31              SOIL ZONE =         -62426.12
     UNSATURATED ZONE =       -1.2595D+07       UNSATURATED ZONE =         -45492.43
       SATURATED ZONE =       -7.6423D+07         SATURATED ZONE =        -160479.50
                LAKES =        5.1728D+08                  LAKES =       -5173609.50

 OVERALL BUDGET ERROR =        3.2734D+07           BUDGET ERROR =          18050.18


  PERCENT DISCREPANCY =              0.55    PERCENT DISCREPANCY =              0.30



