1
 SUMMARY VOLUMETRIC BUDGET FOR GSFLOW 
 DATE: 10 07 1980              CUMULATIVE TIME STEP:       7
 MODFLOW STRESS PERIOD      1     CURRENT TIME STEP:       7     ITERATIONS:      14

 -----------------------------------------------------------------------------------

   CUMULATIVE VOLUMES               L**3   RATES FOR THIS TIME STEP           L**3/T
   ------------------                      ------------------------

                                     IN                                         IN
                                     --                                         --
        PRECIPITATION =                            PRECIPITATION =                  
           STREAMFLOW =                               STREAMFLOW =                  
     GW BOUNDARY FLOW =                         GW BOUNDARY FLOW =                  


                                    OUT                                        OUT
                                    ---                                        ---
   EVAPOTRANSPIRATION =        1.5511D+07     EVAPOTRANSPIRATION =        1479114.35
           STREAMFLOW =        1672058.77             STREAMFLOW =         183556.67
     GW BOUNDARY FLOW =                         GW BOUNDARY FLOW =                  

   INFLOWS - OUTFLOWS =       -1.7183D+07     INFLOWS - OUTFLOWS =       -1662671.03
             --------                                   --------

 TOTAL STORAGE CHANGE =       -1.7159D+07         STORAGE CHANGE =       -1664554.36
       --------------                             --------------
         LAND SURFACE =                             LAND SURFACE =                  
            SOIL ZONE =       -5763080.24              SOIL ZONE =        -270452.78
     UNSATURATED ZONE =       -1007862.38       UNSATURATED ZONE =         -54922.58
       SATURATED ZONE =       -1300694.88         SATURATED ZONE =        -269861.12
                LAKES =       -9086992.75                  LAKES =       -1069317.88

 OVERALL BUDGET ERROR =         -24800.39           BUDGET ERROR =           1883.33


  PERCENT DISCREPANCY =             -0.14    PERCENT DISCREPANCY =              0.11



1
 SUMMARY VOLUMETRIC BUDGET FOR GSFLOW 
 DATE: 10 14 1980              CUMULATIVE TIME STEP:      14
 MODFLOW STRESS PERIOD      1     CURRENT TIME STEP:      14     ITERATIONS:       3

 -----------------------------------------------------------------------------------

   CUMULATIVE VOLUMES               L**3   RATES FOR THIS TIME STEP           L**3/T
   ------------------                      ------------------------

                                     IN                                         IN
                                     --                                         --
        PRECIPITATION =        1.3442D+07          PRECIPITATION =        6721104.51
           STREAMFLOW =                               STREAMFLOW =                  
     GW BOUNDARY FLOW =                         GW BOUNDARY FLOW =                  


                                    OUT                                        OUT
                                    ---                                        ---
   EVAPOTRANSPIRATION =        2.3220D+07     EVAPOTRANSPIRATION =         507075.54
           STREAMFLOW =        2279257.53             STREAMFLOW =          34825.50
     GW BOUNDARY FLOW =                         GW BOUNDARY FLOW =                  

   INFLOWS - OUTFLOWS =       -1.2057D+07     INFLOWS - OUTFLOWS =        6179203.46
             --------                                   --------

 TOTAL STORAGE CHANGE =       -1.2129D+07         STORAGE CHANGE =        6134605.35
       --------------                             --------------
         LAND SURFACE =        2292332.54           LAND SURFACE =        1396244.76
            SOIL ZONE =         152375.66              SOIL ZONE =        3131259.72
     UNSATURATED ZONE =       -1444506.31       UNSATURATED ZONE =         -57190.50
       SATURATED ZONE =       -2729665.41         SATURATED ZONE =        -120465.39
                LAKES =       -1.0399D+07                  LAKES =        1784756.75

 OVERALL BUDGET ERROR =          71474.83           BUDGET ERROR =          44598.12


  PERCENT DISCREPANCY =              0.28    PERCENT DISCREPANCY =              0.67



1
 SUMMARY VOLUMETRIC BUDGET FOR GSFLOW 
 DATE: 10 21 1980              CUMULATIVE TIME STEP:      21
 MODFLOW STRESS PERIOD      1     CURRENT TIME STEP:      21     ITERATIONS:       3

 -----------------------------------------------------------------------------------

   CUMULATIVE VOLUMES               L**3   RATES FOR THIS TIME STEP           L**3/T
   ------------------                      ------------------------

                                     IN                                         IN
                                     --                                         --
        PRECIPITATION =        1.6803D+07          PRECIPITATION =                  
           STREAMFLOW =                               STREAMFLOW =                  
     GW BOUNDARY FLOW =                         GW BOUNDARY FLOW =                  


                                    OUT                                        OUT
                                    ---                                        ---
   EVAPOTRANSPIRATION =        3.0235D+07     EVAPOTRANSPIRATION =        1467325.10
           STREAMFLOW =        3039696.78             STREAMFLOW =         364392.81
     GW BOUNDARY FLOW =                         GW BOUNDARY FLOW =                  

   INFLOWS - OUTFLOWS =       -1.6472D+07     INFLOWS - OUTFLOWS =       -1831717.91
             --------                                   --------

 TOTAL STORAGE CHANGE =       -1.6525D+07         STORAGE CHANGE =       -1823772.72
       --------------                             --------------
         LAND SURFACE =         450933.11           LAND SURFACE =        -157820.81
            SOIL ZONE =        -329746.76              SOIL ZONE =        -679610.38
     UNSATURATED ZONE =       -1880612.68       UNSATURATED ZONE =         -58621.22
       SATURATED ZONE =       -3770328.62         SATURATED ZONE =        -158211.75
                LAKES =       -1.0995D+07                  LAKES =        -769508.56

 OVERALL BUDGET ERROR =          53431.56           BUDGET ERROR =          -7945.19


  PERCENT DISCREPANCY =              0.16    PERCENT DISCREPANCY =             -0.43



1
 SUMMARY VOLUMETRIC BUDGET FOR GSFLOW 
 DATE: 10 28 1980              CUMULATIVE TIME STEP:      28
 MODFLOW STRESS PERIOD      1     CURRENT TIME STEP:      28     ITERATIONS:       4

 -----------------------------------------------------------------------------------

   CUMULATIVE VOLUMES               L**3   RATES FOR THIS TIME STEP           L**3/T
   ------------------                      ------------------------

                                     IN                                         IN
                                     --                                         --
        PRECIPITATION =        4.0327D+07          PRECIPITATION =                  
           STREAMFLOW =                               STREAMFLOW =                  
     GW BOUNDARY FLOW =                         GW BOUNDARY FLOW =                  


                                    OUT                                        OUT
                                    ---                                        ---
   EVAPOTRANSPIRATION =        3.7282D+07     EVAPOTRANSPIRATION =         461399.84
           STREAMFLOW =        5483163.21             STREAMFLOW =         342843.84
     GW BOUNDARY FLOW =                         GW BOUNDARY FLOW =                  

   INFLOWS - OUTFLOWS =       -2438511.69     INFLOWS - OUTFLOWS =        -804243.68
             --------                                   --------

 TOTAL STORAGE CHANGE =       -2658464.05         STORAGE CHANGE =        -756711.33
       --------------                             --------------
         LAND SURFACE =        4658064.73           LAND SURFACE =        -166816.91
            SOIL ZONE =        7112387.28              SOIL ZONE =        -271396.04
     UNSATURATED ZONE =       -2177735.40       UNSATURATED ZONE =         -31940.29
       SATURATED ZONE =       -4492852.08         SATURATED ZONE =        -127099.42
                LAKES =       -7758328.58                  LAKES =        -159458.67

 OVERALL BUDGET ERROR =         219952.36           BUDGET ERROR =         -47532.36

  ***WARNING, FLUX RATES OFF > 3%

  PERCENT DISCREPANCY =              0.51    PERCENT DISCREPANCY =             -6.09



1
 SUMMARY VOLUMETRIC BUDGET FOR GSFLOW 
 DATE: 11 04 1980              CUMULATIVE TIME STEP:      35
 MODFLOW STRESS PERIOD      1     CURRENT TIME STEP:      35     ITERATIONS:       8

 -----------------------------------------------------------------------------------

   CUMULATIVE VOLUMES               L**3   RATES FOR THIS TIME STEP           L**3/T
   ------------------                      ------------------------

                                     IN                                         IN
                                     --                                         --
        PRECIPITATION =        5.0408D+07          PRECIPITATION =                  
           STREAMFLOW =                               STREAMFLOW =                  
     GW BOUNDARY FLOW =                         GW BOUNDARY FLOW =                  


                                    OUT                                        OUT
                                    ---                                        ---
   EVAPOTRANSPIRATION =        5.2117D+07     EVAPOTRANSPIRATION =        2794122.51
           STREAMFLOW =        7932061.65             STREAMFLOW =         350030.38
     GW BOUNDARY FLOW =                         GW BOUNDARY FLOW =                  

   INFLOWS - OUTFLOWS =       -9640408.10     INFLOWS - OUTFLOWS =       -3144152.88
             --------                                   --------

 TOTAL STORAGE CHANGE =       -1.0168D+07         STORAGE CHANGE =       -3151240.18
       --------------                             --------------
         LAND SURFACE =         206598.96           LAND SURFACE =         -41867.41
            SOIL ZONE =        3877888.59              SOIL ZONE =       -1780463.43
     UNSATURATED ZONE =       -2139497.20       UNSATURATED ZONE =         -46447.69
       SATURATED ZONE =       -5048412.58         SATURATED ZONE =        -249321.28
                LAKES =       -7064851.70                  LAKES =       -1033140.38

 OVERALL BUDGET ERROR =         527865.83           BUDGET ERROR =           7087.30


  PERCENT DISCREPANCY =              0.88    PERCENT DISCREPANCY =              0.23



1
 SUMMARY VOLUMETRIC BUDGET FOR GSFLOW 
 DATE: 11 11 1980              CUMULATIVE TIME STEP:      42
 MODFLOW STRESS PERIOD      1     CURRENT TIME STEP:      42     ITERATIONS:       5

 -----------------------------------------------------------------------------------

   CUMULATIVE VOLUMES               L**3   RATES FOR THIS TIME STEP           L**3/T
   ------------------                      ------------------------

                                     IN                                         IN
                                     --                                         --
        PRECIPITATION =        7.9485D+07          PRECIPITATION =        3230734.65
           STREAMFLOW =                               STREAMFLOW =                  
     GW BOUNDARY FLOW =                         GW BOUNDARY FLOW =                  


                                    OUT                                        OUT
                                    ---                                        ---
   EVAPOTRANSPIRATION =        6.9955D+07     EVAPOTRANSPIRATION =        1696170.71
           STREAMFLOW =        9809690.76             STREAMFLOW =         250092.17
     GW BOUNDARY FLOW =                         GW BOUNDARY FLOW =                  

   INFLOWS - OUTFLOWS =        -279942.20     INFLOWS - OUTFLOWS =        1284471.77
             --------                                   --------

 TOTAL STORAGE CHANGE =       -1145254.13         STORAGE CHANGE =        1162780.88
       --------------                             --------------
         LAND SURFACE =        3266569.49           LAND SURFACE =        -110998.46
            SOIL ZONE =        8677733.13              SOIL ZONE =         699262.77
     UNSATURATED ZONE =       -2173175.65       UNSATURATED ZONE =          39611.81
       SATURATED ZONE =       -5914202.89         SATURATED ZONE =         -32863.05
                LAKES =       -5002178.20                  LAKES =         567767.81

 OVERALL BUDGET ERROR =         865311.93           BUDGET ERROR =         121690.89

  ***WARNING, FLUX RATES OFF > 3%

  PERCENT DISCREPANCY =              1.08    PERCENT DISCREPANCY =              3.84



1
 SUMMARY VOLUMETRIC BUDGET FOR GSFLOW 
 DATE: 11 18 1980              CUMULATIVE TIME STEP:      49
 MODFLOW STRESS PERIOD      1     CURRENT TIME STEP:      49     ITERATIONS:       3

 -----------------------------------------------------------------------------------

   CUMULATIVE VOLUMES               L**3   RATES FOR THIS TIME STEP           L**3/T
   ------------------                      ------------------------

                                     IN                                         IN
                                     --                                         --
        PRECIPITATION =        8.5946D+07          PRECIPITATION =                  
           STREAMFLOW =                               STREAMFLOW =                  
     GW BOUNDARY FLOW =                         GW BOUNDARY FLOW =                  


                                    OUT                                        OUT
                                    ---                                        ---
   EVAPOTRANSPIRATION =        7.6247D+07     EVAPOTRANSPIRATION =        1510936.02
           STREAMFLOW =        1.1638D+07             STREAMFLOW =         312770.34
     GW BOUNDARY FLOW =                         GW BOUNDARY FLOW =                  

   INFLOWS - OUTFLOWS =       -1939343.82     INFLOWS - OUTFLOWS =       -1823706.36
             --------                                   --------

 TOTAL STORAGE CHANGE =       -2514318.34         STORAGE CHANGE =       -1761733.42
       --------------                             --------------
         LAND SURFACE =        3785521.16           LAND SURFACE =        -428824.73
            SOIL ZONE =        8056528.86              SOIL ZONE =        -668672.97
     UNSATURATED ZONE =       -2100210.45       UNSATURATED ZONE =          19802.19
       SATURATED ZONE =       -7153632.45         SATURATED ZONE =        -170255.72
                LAKES =       -5102525.46                  LAKES =        -513782.19

 OVERALL BUDGET ERROR =         574974.52           BUDGET ERROR =         -61972.94

  ***WARNING, FLUX RATES OFF > 3%

  PERCENT DISCREPANCY =              0.65    PERCENT DISCREPANCY =             -3.46



1
 SUMMARY VOLUMETRIC BUDGET FOR GSFLOW 
 DATE: 11 25 1980              CUMULATIVE TIME STEP:      56
 MODFLOW STRESS PERIOD      1     CURRENT TIME STEP:      56     ITERATIONS:       3

 -----------------------------------------------------------------------------------

   CUMULATIVE VOLUMES               L**3   RATES FOR THIS TIME STEP           L**3/T
   ------------------                      ------------------------

                                     IN                                         IN
                                     --                                         --
        PRECIPITATION =        8.9177D+07          PRECIPITATION =                  
           STREAMFLOW =                               STREAMFLOW =                  
     GW BOUNDARY FLOW =                         GW BOUNDARY FLOW =                  


                                    OUT                                        OUT
                                    ---                                        ---
   EVAPOTRANSPIRATION =        8.3097D+07     EVAPOTRANSPIRATION =         272960.32
           STREAMFLOW =        1.4055D+07             STREAMFLOW =         437097.81
     GW BOUNDARY FLOW =                         GW BOUNDARY FLOW =                  

   INFLOWS - OUTFLOWS =       -7974750.77     INFLOWS - OUTFLOWS =        -710058.13
             --------                                   --------

 TOTAL STORAGE CHANGE =       -8604598.75         STORAGE CHANGE =        -716160.81
       --------------                             --------------
         LAND SURFACE =        3623166.05           LAND SURFACE =         -24347.90
            SOIL ZONE =        6056693.27              SOIL ZONE =        -184060.19
     UNSATURATED ZONE =       -2112872.42       UNSATURATED ZONE =         -17469.53
       SATURATED ZONE =       -8392309.75         SATURATED ZONE =        -182495.06
                LAKES =       -7779275.90                  LAKES =        -307788.12

 OVERALL BUDGET ERROR =         629847.97           BUDGET ERROR =           6102.68


  PERCENT DISCREPANCY =              0.65    PERCENT DISCREPANCY =              0.86



1
 SUMMARY VOLUMETRIC BUDGET FOR GSFLOW 
 DATE: 12 02 1980              CUMULATIVE TIME STEP:      63
 MODFLOW STRESS PERIOD      1     CURRENT TIME STEP:      63     ITERATIONS:       4

 -----------------------------------------------------------------------------------

   CUMULATIVE VOLUMES               L**3   RATES FOR THIS TIME STEP           L**3/T
   ------------------                      ------------------------

                                     IN                                         IN
                                     --                                         --
        PRECIPITATION =        1.0846D+08          PRECIPITATION =        3198161.89
           STREAMFLOW =                               STREAMFLOW =                  
     GW BOUNDARY FLOW =                         GW BOUNDARY FLOW =                  


                                    OUT                                        OUT
                                    ---                                        ---
   EVAPOTRANSPIRATION =        9.0645D+07     EVAPOTRANSPIRATION =        1276624.12
           STREAMFLOW =        1.7318D+07             STREAMFLOW =         437214.97
     GW BOUNDARY FLOW =                         GW BOUNDARY FLOW =                  

   INFLOWS - OUTFLOWS =         501235.77     INFLOWS - OUTFLOWS =        1484322.81
             --------                                   --------

 TOTAL STORAGE CHANGE =        -567973.24         STORAGE CHANGE =        1303117.33
       --------------                             --------------
         LAND SURFACE =        6315725.60           LAND SURFACE =       -1022199.63
            SOIL ZONE =        9942271.23              SOIL ZONE =        1753181.89
     UNSATURATED ZONE =       -1964014.50       UNSATURATED ZONE =          56642.21
       SATURATED ZONE =       -9124280.12         SATURATED ZONE =         -41773.70
                LAKES =       -5737675.45                  LAKES =         557266.56

 OVERALL BUDGET ERROR =        1069209.01           BUDGET ERROR =         181205.48

  ***WARNING, FLUX RATES OFF > 3%

  PERCENT DISCREPANCY =              0.99    PERCENT DISCREPANCY =              5.83



1
 SUMMARY VOLUMETRIC BUDGET FOR GSFLOW 
 DATE: 12 09 1980              CUMULATIVE TIME STEP:      70
 MODFLOW STRESS PERIOD      1     CURRENT TIME STEP:      70     ITERATIONS:       3

 -----------------------------------------------------------------------------------

   CUMULATIVE VOLUMES               L**3   RATES FOR THIS TIME STEP           L**3/T
   ------------------                      ------------------------

                                     IN                                         IN
                                     --                                         --
        PRECIPITATION =        1.7882D+08          PRECIPITATION =                  
           STREAMFLOW =                               STREAMFLOW =                  
     GW BOUNDARY FLOW =                         GW BOUNDARY FLOW =                  


                                    OUT                                        OUT
                                    ---                                        ---
   EVAPOTRANSPIRATION =        9.2975D+07     EVAPOTRANSPIRATION =         386667.22
           STREAMFLOW =        2.0282D+07             STREAMFLOW =         420980.56
     GW BOUNDARY FLOW =                         GW BOUNDARY FLOW =                  

   INFLOWS - OUTFLOWS =        6.5566D+07     INFLOWS - OUTFLOWS =        -807647.78
             --------                                   --------

 TOTAL STORAGE CHANGE =        6.4461D+07         STORAGE CHANGE =        -828083.95
       --------------                             --------------
         LAND SURFACE =        5.0168D+07           LAND SURFACE =        -246649.42
            SOIL ZONE =        1.3106D+07              SOIL ZONE =        -141328.15
     UNSATURATED ZONE =       -1521343.92       UNSATURATED ZONE =          40035.30
       SATURATED ZONE =       -1.0086D+07         SATURATED ZONE =        -209967.09
                LAKES =        1.2795D+07                  LAKES =        -270174.59

 OVERALL BUDGET ERROR =        1104513.27           BUDGET ERROR =          20436.17


  PERCENT DISCREPANCY =              0.62    PERCENT DISCREPANCY =              2.50



1
 SUMMARY VOLUMETRIC BUDGET FOR GSFLOW 
 DATE: 12 16 1980              CUMULATIVE TIME STEP:      77
 MODFLOW STRESS PERIOD      1     CURRENT TIME STEP:      77     ITERATIONS:       2

 -----------------------------------------------------------------------------------

   CUMULATIVE VOLUMES               L**3   RATES FOR THIS TIME STEP           L**3/T
   ------------------                      ------------------------

                                     IN                                         IN
                                     --                                         --
        PRECIPITATION =        1.7882D+08          PRECIPITATION =                  
           STREAMFLOW =                               STREAMFLOW =                  
     GW BOUNDARY FLOW =                         GW BOUNDARY FLOW =                  


                                    OUT                                        OUT
                                    ---                                        ---
   EVAPOTRANSPIRATION =        9.9447D+07     EVAPOTRANSPIRATION =        1457627.10
           STREAMFLOW =        2.3263D+07             STREAMFLOW =         430698.75
     GW BOUNDARY FLOW =                         GW BOUNDARY FLOW =                  

   INFLOWS - OUTFLOWS =        5.6113D+07     INFLOWS - OUTFLOWS =       -1888325.85
             --------                                   --------

 TOTAL STORAGE CHANGE =        5.4858D+07         STORAGE CHANGE =       -1923933.38
       --------------                             --------------
         LAND SURFACE =        4.5744D+07           LAND SURFACE =       -1259208.96
            SOIL ZONE =        1.2796D+07              SOIL ZONE =         236701.52
     UNSATURATED ZONE =       -1378780.01       UNSATURATED ZONE =          23608.24
       SATURATED ZONE =       -1.1421D+07         SATURATED ZONE =        -178886.67
                LAKES =        9118125.03                  LAKES =        -746147.50

 OVERALL BUDGET ERROR =        1255382.22           BUDGET ERROR =          35607.53


  PERCENT DISCREPANCY =              0.70    PERCENT DISCREPANCY =              1.87



1
 SUMMARY VOLUMETRIC BUDGET FOR GSFLOW 
 DATE: 12 23 1980              CUMULATIVE TIME STEP:      84
 MODFLOW STRESS PERIOD      1     CURRENT TIME STEP:      84     ITERATIONS:       3

 -----------------------------------------------------------------------------------

   CUMULATIVE VOLUMES               L**3   RATES FOR THIS TIME STEP           L**3/T
   ------------------                      ------------------------

                                     IN                                         IN
                                     --                                         --
        PRECIPITATION =        1.8522D+08          PRECIPITATION =        3198161.89
           STREAMFLOW =                               STREAMFLOW =                  
     GW BOUNDARY FLOW =                         GW BOUNDARY FLOW =                  


                                    OUT                                        OUT
                                    ---                                        ---
   EVAPOTRANSPIRATION =        1.0782D+08     EVAPOTRANSPIRATION =        1096944.91
           STREAMFLOW =        2.6316D+07             STREAMFLOW =         443565.59
     GW BOUNDARY FLOW =                         GW BOUNDARY FLOW =                  

   INFLOWS - OUTFLOWS =        5.1083D+07     INFLOWS - OUTFLOWS =        1657651.39
             --------                                   --------

 TOTAL STORAGE CHANGE =        4.9543D+07         STORAGE CHANGE =        1500085.46
       --------------                             --------------
         LAND SURFACE =        4.0221D+07           LAND SURFACE =        -367739.35
            SOIL ZONE =        1.5773D+07              SOIL ZONE =        1370495.30
     UNSATURATED ZONE =       -1093615.86       UNSATURATED ZONE =          94461.73
       SATURATED ZONE =       -1.2341D+07         SATURATED ZONE =         -80786.22
                LAKES =        6984358.12                  LAKES =         483654.00

 OVERALL BUDGET ERROR =        1539969.76           BUDGET ERROR =         157565.93

  ***WARNING, FLUX RATES OFF > 3%

  PERCENT DISCREPANCY =              0.83    PERCENT DISCREPANCY =              5.05



1
 SUMMARY VOLUMETRIC BUDGET FOR GSFLOW 
 DATE: 12 30 1980              CUMULATIVE TIME STEP:      91
 MODFLOW STRESS PERIOD      1     CURRENT TIME STEP:      91     ITERATIONS:       4

 -----------------------------------------------------------------------------------

   CUMULATIVE VOLUMES               L**3   RATES FOR THIS TIME STEP           L**3/T
   ------------------                      ------------------------

                                     IN                                         IN
                                     --                                         --
        PRECIPITATION =        1.8522D+08          PRECIPITATION =                  
           STREAMFLOW =                               STREAMFLOW =                  
     GW BOUNDARY FLOW =                         GW BOUNDARY FLOW =                  


                                    OUT                                        OUT
                                    ---                                        ---
   EVAPOTRANSPIRATION =        1.1805D+08     EVAPOTRANSPIRATION =        1240369.90
           STREAMFLOW =        2.9399D+07             STREAMFLOW =         445279.78
     GW BOUNDARY FLOW =                         GW BOUNDARY FLOW =                  

   INFLOWS - OUTFLOWS =        3.7767D+07     INFLOWS - OUTFLOWS =       -1685649.68
             --------                                   --------

 TOTAL STORAGE CHANGE =        3.6078D+07         STORAGE CHANGE =       -1705499.88
       --------------                             --------------
         LAND SURFACE =        3.3989D+07           LAND SURFACE =        -561684.68
            SOIL ZONE =        1.3817D+07              SOIL ZONE =        -404019.89
     UNSATURATED ZONE =        -777490.16       UNSATURATED ZONE =          33926.54
       SATURATED ZONE =       -1.3388D+07         SATURATED ZONE =        -164117.03
                LAKES =        2437832.31                  LAKES =        -609604.81

 OVERALL BUDGET ERROR =        1688465.40           BUDGET ERROR =          19850.20


  PERCENT DISCREPANCY =              0.92    PERCENT DISCREPANCY =              1.17



1
 SUMMARY VOLUMETRIC BUDGET FOR GSFLOW 
 DATE: 01 06 1981              CUMULATIVE TIME STEP:      98
 MODFLOW STRESS PERIOD      1     CURRENT TIME STEP:      98     ITERATIONS:      14

 -----------------------------------------------------------------------------------

   CUMULATIVE VOLUMES               L**3   RATES FOR THIS TIME STEP           L**3/T
   ------------------                      ------------------------

                                     IN                                         IN
                                     --                                         --
        PRECIPITATION =        2.0923D+08          PRECIPITATION =                  
           STREAMFLOW =                               STREAMFLOW =                  
     GW BOUNDARY FLOW =                         GW BOUNDARY FLOW =                  


                                    OUT                                        OUT
                                    ---                                        ---
   EVAPOTRANSPIRATION =        1.2563D+08     EVAPOTRANSPIRATION =        1141283.58
           STREAMFLOW =        3.2519D+07             STREAMFLOW =         445540.84
     GW BOUNDARY FLOW =                         GW BOUNDARY FLOW =                  

   INFLOWS - OUTFLOWS =        5.1080D+07     INFLOWS - OUTFLOWS =       -1586824.42
             --------                                   --------

 TOTAL STORAGE CHANGE =        4.9288D+07         STORAGE CHANGE =       -1615831.62
       --------------                             --------------
         LAND SURFACE =        3.9010D+07           LAND SURFACE =        -361344.25
            SOIL ZONE =        1.7029D+07              SOIL ZONE =        -582744.41
     UNSATURATED ZONE =        -192074.23       UNSATURATED ZONE =          81481.54
       SATURATED ZONE =       -1.3963D+07         SATURATED ZONE =        -217705.00
                LAKES =        7403626.97                  LAKES =        -535519.50

 OVERALL BUDGET ERROR =        1792746.87           BUDGET ERROR =          29007.20


  PERCENT DISCREPANCY =              0.86    PERCENT DISCREPANCY =              1.81



1
 SUMMARY VOLUMETRIC BUDGET FOR GSFLOW 
 DATE: 01 13 1981              CUMULATIVE TIME STEP:     105
 MODFLOW STRESS PERIOD      1     CURRENT TIME STEP:     105     ITERATIONS:       3

 -----------------------------------------------------------------------------------

   CUMULATIVE VOLUMES               L**3   RATES FOR THIS TIME STEP           L**3/T
   ------------------                      ------------------------

                                     IN                                         IN
                                     --                                         --
        PRECIPITATION =        2.1223D+08          PRECIPITATION =                  
           STREAMFLOW =                               STREAMFLOW =                  
     GW BOUNDARY FLOW =                         GW BOUNDARY FLOW =                  


                                    OUT                                        OUT
                                    ---                                        ---
   EVAPOTRANSPIRATION =        1.3396D+08     EVAPOTRANSPIRATION =        1403631.83
           STREAMFLOW =        3.5650D+07             STREAMFLOW =         457521.16
     GW BOUNDARY FLOW =                         GW BOUNDARY FLOW =                  

   INFLOWS - OUTFLOWS =        4.2615D+07     INFLOWS - OUTFLOWS =       -1861152.99
             --------                                   --------

 TOTAL STORAGE CHANGE =        4.0694D+07         STORAGE CHANGE =       -1872545.53
       --------------                             --------------
         LAND SURFACE =        3.7468D+07           LAND SURFACE =        -472696.79
            SOIL ZONE =        1.4430D+07              SOIL ZONE =        -520816.75
     UNSATURATED ZONE =          84887.12       UNSATURATED ZONE =          23869.63
       SATURATED ZONE =       -1.5251D+07         SATURATED ZONE =        -179430.94
                LAKES =        3962504.03                  LAKES =        -723470.69

 OVERALL BUDGET ERROR =        1921026.38           BUDGET ERROR =          11392.54


  PERCENT DISCREPANCY =              0.91    PERCENT DISCREPANCY =              0.61



1
 SUMMARY VOLUMETRIC BUDGET FOR GSFLOW 
 DATE: 01 20 1981              CUMULATIVE TIME STEP:     112
 MODFLOW STRESS PERIOD      1     CURRENT TIME STEP:     112     ITERATIONS:      12

 -----------------------------------------------------------------------------------

   CUMULATIVE VOLUMES               L**3   RATES FOR THIS TIME STEP           L**3/T
   ------------------                      ------------------------

                                     IN                                         IN
                                     --                                         --
        PRECIPITATION =        2.2423D+08          PRECIPITATION =        6001392.59
           STREAMFLOW =                               STREAMFLOW =                  
     GW BOUNDARY FLOW =                         GW BOUNDARY FLOW =                  


                                    OUT                                        OUT
                                    ---                                        ---
   EVAPOTRANSPIRATION =        1.4498D+08     EVAPOTRANSPIRATION =        1812118.73
           STREAMFLOW =        3.9241D+07             STREAMFLOW =         485521.72
     GW BOUNDARY FLOW =                         GW BOUNDARY FLOW =                  

   INFLOWS - OUTFLOWS =        4.0007D+07     INFLOWS - OUTFLOWS =        3703752.14
             --------                                   --------

 TOTAL STORAGE CHANGE =        3.7841D+07         STORAGE CHANGE =        3598737.69
       --------------                             --------------
         LAND SURFACE =        3.4618D+07           LAND SURFACE =         551847.56
            SOIL ZONE =        1.5990D+07              SOIL ZONE =        1363814.34
     UNSATURATED ZONE =         519118.73       UNSATURATED ZONE =         135824.63
       SATURATED ZONE =       -1.5890D+07         SATURATED ZONE =          86493.91
                LAKES =        2603535.25                  LAKES =        1460757.25

 OVERALL BUDGET ERROR =        2166064.22           BUDGET ERROR =         105014.45


  PERCENT DISCREPANCY =              0.97    PERCENT DISCREPANCY =              1.77



1
 SUMMARY VOLUMETRIC BUDGET FOR GSFLOW 
 DATE: 01 27 1981              CUMULATIVE TIME STEP:     119
 MODFLOW STRESS PERIOD      1     CURRENT TIME STEP:     119     ITERATIONS:      15

 -----------------------------------------------------------------------------------

   CUMULATIVE VOLUMES               L**3   RATES FOR THIS TIME STEP           L**3/T
   ------------------                      ------------------------

                                     IN                                         IN
                                     --                                         --
        PRECIPITATION =        3.3525D+08          PRECIPITATION =        6.0014D+07
           STREAMFLOW =                               STREAMFLOW =                  
     GW BOUNDARY FLOW =                         GW BOUNDARY FLOW =                  


                                    OUT                                        OUT
                                    ---                                        ---
   EVAPOTRANSPIRATION =        1.5407D+08     EVAPOTRANSPIRATION =         663076.66
           STREAMFLOW =        4.1752D+07             STREAMFLOW =         345811.34
     GW BOUNDARY FLOW =                         GW BOUNDARY FLOW =                  

   INFLOWS - OUTFLOWS =        1.3943D+08     INFLOWS - OUTFLOWS =        5.9005D+07
             --------                                   --------

 TOTAL STORAGE CHANGE =        1.3710D+08         STORAGE CHANGE =        5.8962D+07
       --------------                             --------------
         LAND SURFACE =        1.0380D+08           LAND SURFACE =        4.0704D+07
            SOIL ZONE =        1.8073D+07              SOIL ZONE =        1754473.48
     UNSATURATED ZONE =        1198113.57       UNSATURATED ZONE =         120360.99
       SATURATED ZONE =       -1.6468D+07         SATURATED ZONE =          79161.92
                LAKES =        3.0503D+07                  LAKES =        1.6304D+07

 OVERALL BUDGET ERROR =        2325445.57           BUDGET ERROR =          42588.54


  PERCENT DISCREPANCY =              0.70    PERCENT DISCREPANCY =              0.07



1
 SUMMARY VOLUMETRIC BUDGET FOR GSFLOW 
 DATE: 02 03 1981              CUMULATIVE TIME STEP:     126
 MODFLOW STRESS PERIOD      1     CURRENT TIME STEP:     126     ITERATIONS:      22

 -----------------------------------------------------------------------------------

   CUMULATIVE VOLUMES               L**3   RATES FOR THIS TIME STEP           L**3/T
   ------------------                      ------------------------

                                     IN                                         IN
                                     --                                         --
        PRECIPITATION =        4.0137D+08          PRECIPITATION =                  
           STREAMFLOW =                               STREAMFLOW =                  
     GW BOUNDARY FLOW =                         GW BOUNDARY FLOW =                  


                                    OUT                                        OUT
                                    ---                                        ---
   EVAPOTRANSPIRATION =        1.5769D+08     EVAPOTRANSPIRATION =         897906.78
           STREAMFLOW =        4.4232D+07             STREAMFLOW =         354891.81
     GW BOUNDARY FLOW =                         GW BOUNDARY FLOW =                  

   INFLOWS - OUTFLOWS =        1.9944D+08     INFLOWS - OUTFLOWS =       -1252798.60
             --------                                   --------

 TOTAL STORAGE CHANGE =        1.9733D+08         STORAGE CHANGE =       -1277211.35
       --------------                             --------------
         LAND SURFACE =        1.5000D+08           LAND SURFACE =        -514046.87
            SOIL ZONE =        1.7075D+07              SOIL ZONE =        -141219.18
     UNSATURATED ZONE =        1623982.24       UNSATURATED ZONE =          29792.15
       SATURATED ZONE =       -1.7712D+07         SATURATED ZONE =        -174452.27
                LAKES =        4.6341D+07                  LAKES =        -477285.19

 OVERALL BUDGET ERROR =        2115600.26           BUDGET ERROR =          24412.76


  PERCENT DISCREPANCY =              0.53    PERCENT DISCREPANCY =              1.93



1
 SUMMARY VOLUMETRIC BUDGET FOR GSFLOW 
 DATE: 02 10 1981              CUMULATIVE TIME STEP:     133
 MODFLOW STRESS PERIOD      1     CURRENT TIME STEP:     133     ITERATIONS:       3

 -----------------------------------------------------------------------------------

   CUMULATIVE VOLUMES               L**3   RATES FOR THIS TIME STEP           L**3/T
   ------------------                      ------------------------

                                     IN                                         IN
                                     --                                         --
        PRECIPITATION =        4.1375D+08          PRECIPITATION =        3095932.43
           STREAMFLOW =                               STREAMFLOW =                  
     GW BOUNDARY FLOW =                         GW BOUNDARY FLOW =                  


                                    OUT                                        OUT
                                    ---                                        ---
   EVAPOTRANSPIRATION =        1.6309D+08     EVAPOTRANSPIRATION =         577964.49
           STREAMFLOW =        4.6626D+07             STREAMFLOW =         340304.91
     GW BOUNDARY FLOW =                         GW BOUNDARY FLOW =                  

   INFLOWS - OUTFLOWS =        2.0403D+08     INFLOWS - OUTFLOWS =        2177663.03
             --------                                   --------

 TOTAL STORAGE CHANGE =        2.0180D+08         STORAGE CHANGE =        2148051.88
       --------------                             --------------
         LAND SURFACE =        1.5542D+08           LAND SURFACE =        1647975.59
            SOIL ZONE =        1.6987D+07              SOIL ZONE =         192842.20
     UNSATURATED ZONE =        1704929.51       UNSATURATED ZONE =           8260.36
       SATURATED ZONE =       -1.8822D+07         SATURATED ZONE =        -149216.27
                LAKES =        4.6512D+07                  LAKES =         448190.00

 OVERALL BUDGET ERROR =        2235940.62           BUDGET ERROR =          29611.15


  PERCENT DISCREPANCY =              0.54    PERCENT DISCREPANCY =              0.96



1
 SUMMARY VOLUMETRIC BUDGET FOR GSFLOW 
 DATE: 02 17 1981              CUMULATIVE TIME STEP:     140
 MODFLOW STRESS PERIOD      1     CURRENT TIME STEP:     140     ITERATIONS:      32

 -----------------------------------------------------------------------------------

   CUMULATIVE VOLUMES               L**3   RATES FOR THIS TIME STEP           L**3/T
   ------------------                      ------------------------

                                     IN                                         IN
                                     --                                         --
        PRECIPITATION =        4.6328D+08          PRECIPITATION =                  
           STREAMFLOW =                               STREAMFLOW =                  
     GW BOUNDARY FLOW =                         GW BOUNDARY FLOW =                  


                                    OUT                                        OUT
                                    ---                                        ---
   EVAPOTRANSPIRATION =        1.7438D+08     EVAPOTRANSPIRATION =        2612936.24
           STREAMFLOW =        4.8976D+07             STREAMFLOW =         285389.19
     GW BOUNDARY FLOW =                         GW BOUNDARY FLOW =                  

   INFLOWS - OUTFLOWS =        2.3992D+08     INFLOWS - OUTFLOWS =       -2898325.43
             --------                                   --------

 TOTAL STORAGE CHANGE =        2.3717D+08         STORAGE CHANGE =       -2955121.25
       --------------                             --------------
         LAND SURFACE =        1.6983D+08           LAND SURFACE =       -2316327.40
            SOIL ZONE =        2.3846D+07              SOIL ZONE =         -56600.30
     UNSATURATED ZONE =        2741391.75       UNSATURATED ZONE =         187288.04
       SATURATED ZONE =       -1.8907D+07         SATURATED ZONE =        -130631.02
                LAKES =        5.9658D+07                  LAKES =        -638850.56

 OVERALL BUDGET ERROR =        2752642.72           BUDGET ERROR =          56795.82


  PERCENT DISCREPANCY =              0.60    PERCENT DISCREPANCY =              1.94



1
 SUMMARY VOLUMETRIC BUDGET FOR GSFLOW 
 DATE: 02 24 1981              CUMULATIVE TIME STEP:     147
 MODFLOW STRESS PERIOD      1     CURRENT TIME STEP:     147     ITERATIONS:      15

 -----------------------------------------------------------------------------------

   CUMULATIVE VOLUMES               L**3   RATES FOR THIS TIME STEP           L**3/T
   ------------------                      ------------------------

                                     IN                                         IN
                                     --                                         --
        PRECIPITATION =        4.8805D+08          PRECIPITATION =        1.8576D+07
           STREAMFLOW =                               STREAMFLOW =                  
     GW BOUNDARY FLOW =                         GW BOUNDARY FLOW =                  


                                    OUT                                        OUT
                                    ---                                        ---
   EVAPOTRANSPIRATION =        1.8775D+08     EVAPOTRANSPIRATION =        1355056.28
           STREAMFLOW =        5.0059D+07             STREAMFLOW =         143123.89
     GW BOUNDARY FLOW =                         GW BOUNDARY FLOW =                  

   INFLOWS - OUTFLOWS =        2.5024D+08     INFLOWS - OUTFLOWS =        1.7077D+07
             --------                                   --------

 TOTAL STORAGE CHANGE =        2.4702D+08         STORAGE CHANGE =        1.7040D+07
       --------------                             --------------
         LAND SURFACE =        1.6962D+08           LAND SURFACE =        1.0824D+07
            SOIL ZONE =        2.6077D+07              SOIL ZONE =         469939.87
     UNSATURATED ZONE =        1563536.93       UNSATURATED ZONE =         343361.18
       SATURATED ZONE =       -1.7097D+07         SATURATED ZONE =          48791.02
                LAKES =        6.6855D+07                  LAKES =        5353975.00

 OVERALL BUDGET ERROR =        3225483.50           BUDGET ERROR =          37607.78


  PERCENT DISCREPANCY =              0.66    PERCENT DISCREPANCY =              0.20



1
 SUMMARY VOLUMETRIC BUDGET FOR GSFLOW 
 DATE: 03 03 1981              CUMULATIVE TIME STEP:     154
 MODFLOW STRESS PERIOD      1     CURRENT TIME STEP:     154     ITERATIONS:      15

 -----------------------------------------------------------------------------------

   CUMULATIVE VOLUMES               L**3   RATES FOR THIS TIME STEP           L**3/T
   ------------------                      ------------------------

                                     IN                                         IN
                                     --                                         --
        PRECIPITATION =        5.0056D+08          PRECIPITATION =                  
           STREAMFLOW =                               STREAMFLOW =                  
     GW BOUNDARY FLOW =                         GW BOUNDARY FLOW =                  


                                    OUT                                        OUT
                                    ---                                        ---
   EVAPOTRANSPIRATION =        1.9627D+08     EVAPOTRANSPIRATION =        2160862.31
           STREAMFLOW =        5.1106D+07             STREAMFLOW =         161574.78
     GW BOUNDARY FLOW =                         GW BOUNDARY FLOW =                  

   INFLOWS - OUTFLOWS =        2.5319D+08     INFLOWS - OUTFLOWS =       -2322437.09
             --------                                   --------

 TOTAL STORAGE CHANGE =        2.4969D+08         STORAGE CHANGE =       -2347640.54
       --------------                             --------------
         LAND SURFACE =        1.7232D+08           LAND SURFACE =       -1112915.94
            SOIL ZONE =        2.4193D+07              SOIL ZONE =        -376012.51
     UNSATURATED ZONE =        2529586.67       UNSATURATED ZONE =          66278.01
       SATURATED ZONE =       -1.8337D+07         SATURATED ZONE =        -177788.16
                LAKES =        6.8987D+07                  LAKES =        -747201.94

 OVERALL BUDGET ERROR =        3493058.20           BUDGET ERROR =          25203.45


  PERCENT DISCREPANCY =              0.70    PERCENT DISCREPANCY =              1.08



1
 SUMMARY VOLUMETRIC BUDGET FOR GSFLOW 
 DATE: 03 10 1981              CUMULATIVE TIME STEP:     161
 MODFLOW STRESS PERIOD      1     CURRENT TIME STEP:     161     ITERATIONS:      41

 -----------------------------------------------------------------------------------

   CUMULATIVE VOLUMES               L**3   RATES FOR THIS TIME STEP           L**3/T
   ------------------                      ------------------------

                                     IN                                         IN
                                     --                                         --
        PRECIPITATION =        5.0378D+08          PRECIPITATION =        3221591.34
           STREAMFLOW =                               STREAMFLOW =                  
     GW BOUNDARY FLOW =                         GW BOUNDARY FLOW =                  


                                    OUT                                        OUT
                                    ---                                        ---
   EVAPOTRANSPIRATION =        2.1334D+08     EVAPOTRANSPIRATION =        1910564.30
           STREAMFLOW =        5.2250D+07             STREAMFLOW =         163871.41
     GW BOUNDARY FLOW =                         GW BOUNDARY FLOW =                  

   INFLOWS - OUTFLOWS =        2.3819D+08     INFLOWS - OUTFLOWS =        1147155.63
             --------                                   --------

 TOTAL STORAGE CHANGE =        2.3449D+08         STORAGE CHANGE =        1115078.65
       --------------                             --------------
         LAND SURFACE =        1.5960D+08           LAND SURFACE =       -1847354.55
            SOIL ZONE =        2.4732D+07              SOIL ZONE =        1269939.06
     UNSATURATED ZONE =        2991949.86       UNSATURATED ZONE =         158864.69
       SATURATED ZONE =       -1.8853D+07         SATURATED ZONE =         136499.45
                LAKES =        6.6016D+07                  LAKES =        1397130.00

 OVERALL BUDGET ERROR =        3701304.86           BUDGET ERROR =          32076.98


  PERCENT DISCREPANCY =              0.74    PERCENT DISCREPANCY =              1.00



1
 SUMMARY VOLUMETRIC BUDGET FOR GSFLOW 
 DATE: 03 17 1981              CUMULATIVE TIME STEP:     168
 MODFLOW STRESS PERIOD      1     CURRENT TIME STEP:     168     ITERATIONS:      33

 -----------------------------------------------------------------------------------

   CUMULATIVE VOLUMES               L**3   RATES FOR THIS TIME STEP           L**3/T
   ------------------                      ------------------------

                                     IN                                         IN
                                     --                                         --
        PRECIPITATION =        5.1345D+08          PRECIPITATION =        3221591.34
           STREAMFLOW =                               STREAMFLOW =                  
     GW BOUNDARY FLOW =                         GW BOUNDARY FLOW =                  


                                    OUT                                        OUT
                                    ---                                        ---
   EVAPOTRANSPIRATION =        2.2791D+08     EVAPOTRANSPIRATION =        1041874.86
           STREAMFLOW =        5.3446D+07             STREAMFLOW =         174561.36
     GW BOUNDARY FLOW =                         GW BOUNDARY FLOW =                  

   INFLOWS - OUTFLOWS =        2.3209D+08     INFLOWS - OUTFLOWS =        2005155.12
             --------                                   --------

 TOTAL STORAGE CHANGE =        2.2825D+08         STORAGE CHANGE =        1984272.47
       --------------                             --------------
         LAND SURFACE =        1.5550D+08           LAND SURFACE =        1505005.36
            SOIL ZONE =        2.3802D+07              SOIL ZONE =          25000.99
     UNSATURATED ZONE =        3585051.71       UNSATURATED ZONE =        -103202.18
       SATURATED ZONE =       -1.9572D+07         SATURATED ZONE =           2132.05
                LAKES =        6.4937D+07                  LAKES =         555336.25

 OVERALL BUDGET ERROR =        3842960.73           BUDGET ERROR =          20882.65


  PERCENT DISCREPANCY =              0.75    PERCENT DISCREPANCY =              0.65



1
 SUMMARY VOLUMETRIC BUDGET FOR GSFLOW 
 DATE: 03 24 1981              CUMULATIVE TIME STEP:     175
 MODFLOW STRESS PERIOD      1     CURRENT TIME STEP:     175     ITERATIONS:      21

 -----------------------------------------------------------------------------------

   CUMULATIVE VOLUMES               L**3   RATES FOR THIS TIME STEP           L**3/T
   ------------------                      ------------------------

                                     IN                                         IN
                                     --                                         --
        PRECIPITATION =        5.7144D+08          PRECIPITATION =        6443182.67
           STREAMFLOW =                               STREAMFLOW =                  
     GW BOUNDARY FLOW =                         GW BOUNDARY FLOW =                  


                                    OUT                                        OUT
                                    ---                                        ---
   EVAPOTRANSPIRATION =        2.4181D+08     EVAPOTRANSPIRATION =        1710466.58
           STREAMFLOW =        5.4582D+07             STREAMFLOW =         164599.03
     GW BOUNDARY FLOW =                         GW BOUNDARY FLOW =                  

   INFLOWS - OUTFLOWS =        2.7504D+08     INFLOWS - OUTFLOWS =        4568117.06
             --------                                   --------

 TOTAL STORAGE CHANGE =        2.7095D+08         STORAGE CHANGE =        4534688.02
       --------------                             --------------
         LAND SURFACE =        1.8290D+08           LAND SURFACE =        1419532.73
            SOIL ZONE =        2.6095D+07              SOIL ZONE =         785430.99
     UNSATURATED ZONE =        4505686.14       UNSATURATED ZONE =         179288.96
       SATURATED ZONE =       -2.0011D+07         SATURATED ZONE =          90160.83
                LAKES =        7.7463D+07                  LAKES =        2060274.50

 OVERALL BUDGET ERROR =        4088891.36           BUDGET ERROR =          33429.04


  PERCENT DISCREPANCY =              0.72    PERCENT DISCREPANCY =              0.52



1
 SUMMARY VOLUMETRIC BUDGET FOR GSFLOW 
 DATE: 03 31 1981              CUMULATIVE TIME STEP:     182
 MODFLOW STRESS PERIOD      1     CURRENT TIME STEP:     182     ITERATIONS:      28

 -----------------------------------------------------------------------------------

   CUMULATIVE VOLUMES               L**3   RATES FOR THIS TIME STEP           L**3/T
   ------------------                      ------------------------

                                     IN                                         IN
                                     --                                         --
        PRECIPITATION =        6.3587D+08          PRECIPITATION =        6443182.67
           STREAMFLOW =                               STREAMFLOW =                  
     GW BOUNDARY FLOW =                         GW BOUNDARY FLOW =                  


                                    OUT                                        OUT
                                    ---                                        ---
   EVAPOTRANSPIRATION =        2.5632D+08     EVAPOTRANSPIRATION =        1135588.74
           STREAMFLOW =        5.5754D+07             STREAMFLOW =         154066.58
     GW BOUNDARY FLOW =                         GW BOUNDARY FLOW =                  

   INFLOWS - OUTFLOWS =        3.2380D+08     INFLOWS - OUTFLOWS =        5153527.35
             --------                                   --------

 TOTAL STORAGE CHANGE =        3.1975D+08         STORAGE CHANGE =        5110680.47
       --------------                             --------------
         LAND SURFACE =        2.0791D+08           LAND SURFACE =        2593093.39
            SOIL ZONE =        2.7740D+07              SOIL ZONE =         490917.97
     UNSATURATED ZONE =        1378816.07       UNSATURATED ZONE =         179839.89
       SATURATED ZONE =       -1.6472D+07         SATURATED ZONE =         -34389.78
                LAKES =        9.9195D+07                  LAKES =        1881219.00

 OVERALL BUDGET ERROR =        4044088.54           BUDGET ERROR =          42846.88


  PERCENT DISCREPANCY =              0.64    PERCENT DISCREPANCY =              0.67



1
 SUMMARY VOLUMETRIC BUDGET FOR GSFLOW 
 DATE: 04 07 1981              CUMULATIVE TIME STEP:     189
 MODFLOW STRESS PERIOD      1     CURRENT TIME STEP:     189     ITERATIONS:      51

 -----------------------------------------------------------------------------------

   CUMULATIVE VOLUMES               L**3   RATES FOR THIS TIME STEP           L**3/T
   ------------------                      ------------------------

                                     IN                                         IN
                                     --                                         --
        PRECIPITATION =        6.5328D+08          PRECIPITATION =                  
           STREAMFLOW =                               STREAMFLOW =                  
     GW BOUNDARY FLOW =                         GW BOUNDARY FLOW =                  


                                    OUT                                        OUT
                                    ---                                        ---
   EVAPOTRANSPIRATION =        2.7945D+08     EVAPOTRANSPIRATION =        4247234.31
           STREAMFLOW =        5.6884D+07             STREAMFLOW =         203682.41
     GW BOUNDARY FLOW =                         GW BOUNDARY FLOW =                  

   INFLOWS - OUTFLOWS =        3.1695D+08     INFLOWS - OUTFLOWS =       -4450916.72
             --------                                   --------

 TOTAL STORAGE CHANGE =        3.1265D+08         STORAGE CHANGE =       -4485695.24
       --------------                             --------------
         LAND SURFACE =        1.8629D+08           LAND SURFACE =       -6808850.16
            SOIL ZONE =        2.8275D+07              SOIL ZONE =         -13664.59
     UNSATURATED ZONE =        3317077.67       UNSATURATED ZONE =         342048.50
       SATURATED ZONE =       -1.5184D+07         SATURATED ZONE =         292237.75
                LAKES =        1.0995D+08                  LAKES =        1702533.25

 OVERALL BUDGET ERROR =        4301760.31           BUDGET ERROR =          34778.52


  PERCENT DISCREPANCY =              0.66    PERCENT DISCREPANCY =              0.78



1
 SUMMARY VOLUMETRIC BUDGET FOR GSFLOW 
 DATE: 04 14 1981              CUMULATIVE TIME STEP:     196
 MODFLOW STRESS PERIOD      1     CURRENT TIME STEP:     196     ITERATIONS:      26

 -----------------------------------------------------------------------------------

   CUMULATIVE VOLUMES               L**3   RATES FOR THIS TIME STEP           L**3/T
   ------------------                      ------------------------

                                     IN                                         IN
                                     --                                         --
        PRECIPITATION =        6.5328D+08          PRECIPITATION =                  
           STREAMFLOW =                               STREAMFLOW =                  
     GW BOUNDARY FLOW =                         GW BOUNDARY FLOW =                  


                                    OUT                                        OUT
                                    ---                                        ---
   EVAPOTRANSPIRATION =        3.0927D+08     EVAPOTRANSPIRATION =        5170284.97
           STREAMFLOW =        5.8130D+07             STREAMFLOW =         172000.22
     GW BOUNDARY FLOW =                         GW BOUNDARY FLOW =                  

   INFLOWS - OUTFLOWS =        2.8588D+08     INFLOWS - OUTFLOWS =       -5342285.19
             --------                                   --------

 TOTAL STORAGE CHANGE =        2.8139D+08         STORAGE CHANGE =       -5354983.33
       --------------                             --------------
         LAND SURFACE =        1.4105D+08           LAND SURFACE =       -7353372.32
            SOIL ZONE =        2.3823D+07              SOIL ZONE =        -905311.50
     UNSATURATED ZONE =        5312732.12       UNSATURATED ZONE =         260555.14
       SATURATED ZONE =       -1.3527D+07         SATURATED ZONE =         256361.09
                LAKES =        1.2474D+08                  LAKES =        2386784.25

 OVERALL BUDGET ERROR =        4490203.49           BUDGET ERROR =          12698.14


  PERCENT DISCREPANCY =              0.69    PERCENT DISCREPANCY =              0.24



1
 SUMMARY VOLUMETRIC BUDGET FOR GSFLOW 
 DATE: 04 21 1981              CUMULATIVE TIME STEP:     203
 MODFLOW STRESS PERIOD      1     CURRENT TIME STEP:     203     ITERATIONS:      54

 -----------------------------------------------------------------------------------

   CUMULATIVE VOLUMES               L**3   RATES FOR THIS TIME STEP           L**3/T
   ------------------                      ------------------------

                                     IN                                         IN
                                     --                                         --
        PRECIPITATION =        6.7418D+08          PRECIPITATION =                  
           STREAMFLOW =                               STREAMFLOW =                  
     GW BOUNDARY FLOW =                         GW BOUNDARY FLOW =                  


                                    OUT                                        OUT
                                    ---                                        ---
   EVAPOTRANSPIRATION =        3.3937D+08     EVAPOTRANSPIRATION =        5676684.96
           STREAMFLOW =        5.9345D+07             STREAMFLOW =         169579.17
     GW BOUNDARY FLOW =                         GW BOUNDARY FLOW =                  

   INFLOWS - OUTFLOWS =        2.7546D+08     INFLOWS - OUTFLOWS =       -5846264.13
             --------                                   --------

 TOTAL STORAGE CHANGE =        2.7085D+08         STORAGE CHANGE =       -5856206.49
       --------------                             --------------
         LAND SURFACE =        1.1854D+08           LAND SURFACE =       -3228226.29
            SOIL ZONE =        2.1950D+07              SOIL ZONE =       -2078523.85
     UNSATURATED ZONE =        6416866.67       UNSATURATED ZONE =          90844.78
       SATURATED ZONE =       -1.3360D+07         SATURATED ZONE =         -23812.00
                LAKES =        1.3731D+08                  LAKES =        -616489.12

 OVERALL BUDGET ERROR =        4607276.09           BUDGET ERROR =           9942.36


  PERCENT DISCREPANCY =              0.69    PERCENT DISCREPANCY =              0.17



1
 SUMMARY VOLUMETRIC BUDGET FOR GSFLOW 
 DATE: 04 28 1981              CUMULATIVE TIME STEP:     210
 MODFLOW STRESS PERIOD      1     CURRENT TIME STEP:     210     ITERATIONS:      47

 -----------------------------------------------------------------------------------

   CUMULATIVE VOLUMES               L**3   RATES FOR THIS TIME STEP           L**3/T
   ------------------                      ------------------------

                                     IN                                         IN
                                     --                                         --
        PRECIPITATION =        6.8114D+08          PRECIPITATION =                  
           STREAMFLOW =                               STREAMFLOW =                  
     GW BOUNDARY FLOW =                         GW BOUNDARY FLOW =                  


                                    OUT                                        OUT
                                    ---                                        ---
   EVAPOTRANSPIRATION =        3.8077D+08     EVAPOTRANSPIRATION =        5632839.01
           STREAMFLOW =        6.0557D+07             STREAMFLOW =         169029.37
     GW BOUNDARY FLOW =                         GW BOUNDARY FLOW =                  

   INFLOWS - OUTFLOWS =        2.3982D+08     INFLOWS - OUTFLOWS =       -5801868.38
             --------                                   --------

 TOTAL STORAGE CHANGE =        2.3517D+08         STORAGE CHANGE =       -5811694.00
       --------------                             --------------
         LAND SURFACE =        9.3061D+07           LAND SURFACE =       -4036144.09
            SOIL ZONE =        1.1922D+07              SOIL ZONE =       -1674330.97
     UNSATURATED ZONE =        6501273.25       UNSATURATED ZONE =         -33165.06
       SATURATED ZONE =       -1.3199D+07         SATURATED ZONE =         111260.41
                LAKES =        1.3688D+08                  LAKES =        -179314.28

 OVERALL BUDGET ERROR =        4648619.27           BUDGET ERROR =           9825.62


  PERCENT DISCREPANCY =              0.68    PERCENT DISCREPANCY =              0.17



1
 SUMMARY VOLUMETRIC BUDGET FOR GSFLOW 
 DATE: 05 05 1981              CUMULATIVE TIME STEP:     217
 MODFLOW STRESS PERIOD      1     CURRENT TIME STEP:     217     ITERATIONS:      72

 -----------------------------------------------------------------------------------

   CUMULATIVE VOLUMES               L**3   RATES FOR THIS TIME STEP           L**3/T
   ------------------                      ------------------------

                                     IN                                         IN
                                     --                                         --
        PRECIPITATION =        6.8811D+08          PRECIPITATION =                  
           STREAMFLOW =                               STREAMFLOW =                  
     GW BOUNDARY FLOW =                         GW BOUNDARY FLOW =                  


                                    OUT                                        OUT
                                    ---                                        ---
   EVAPOTRANSPIRATION =        4.1880D+08     EVAPOTRANSPIRATION =        3777410.10
           STREAMFLOW =        6.1775D+07             STREAMFLOW =         173796.00
     GW BOUNDARY FLOW =                         GW BOUNDARY FLOW =                  

   INFLOWS - OUTFLOWS =        2.0754D+08     INFLOWS - OUTFLOWS =       -3951206.10
             --------                                   --------

 TOTAL STORAGE CHANGE =        2.0286D+08         STORAGE CHANGE =       -3952215.12
       --------------                             --------------
         LAND SURFACE =        6.7797D+07           LAND SURFACE =       -2954584.90
            SOIL ZONE =        5252912.07              SOIL ZONE =        -921527.13
     UNSATURATED ZONE =        5131167.71       UNSATURATED ZONE =         -66634.99
       SATURATED ZONE =       -1.2260D+07         SATURATED ZONE =         -16394.86
                LAKES =        1.3694D+08                  LAKES =           6926.76

 OVERALL BUDGET ERROR =        4678988.40           BUDGET ERROR =           1009.02


  PERCENT DISCREPANCY =              0.68    PERCENT DISCREPANCY =              0.03



1
 SUMMARY VOLUMETRIC BUDGET FOR GSFLOW 
 DATE: 05 12 1981              CUMULATIVE TIME STEP:     224
 MODFLOW STRESS PERIOD      1     CURRENT TIME STEP:     224     ITERATIONS:      67

 -----------------------------------------------------------------------------------

   CUMULATIVE VOLUMES               L**3   RATES FOR THIS TIME STEP           L**3/T
   ------------------                      ------------------------

                                     IN                                         IN
                                     --                                         --
        PRECIPITATION =        6.8811D+08          PRECIPITATION =                  
           STREAMFLOW =                               STREAMFLOW =                  
     GW BOUNDARY FLOW =                         GW BOUNDARY FLOW =                  


                                    OUT                                        OUT
                                    ---                                        ---
   EVAPOTRANSPIRATION =        4.4716D+08     EVAPOTRANSPIRATION =        4486774.27
           STREAMFLOW =        6.2972D+07             STREAMFLOW =         168853.17
     GW BOUNDARY FLOW =                         GW BOUNDARY FLOW =                  

   INFLOWS - OUTFLOWS =        1.7798D+08     INFLOWS - OUTFLOWS =       -4655627.45
             --------                                   --------

 TOTAL STORAGE CHANGE =        1.7332D+08         STORAGE CHANGE =       -4650917.14
       --------------                             --------------
         LAND SURFACE =        4.4652D+07           LAND SURFACE =       -3401591.14
            SOIL ZONE =       -1386764.14              SOIL ZONE =        -953071.90
     UNSATURATED ZONE =        3091122.96       UNSATURATED ZONE =        -839452.31
       SATURATED ZONE =       -1.1001D+07         SATURATED ZONE =         540605.25
                LAKES =        1.3796D+08                  LAKES =           2592.95

 OVERALL BUDGET ERROR =        4665778.17           BUDGET ERROR =          -4710.30


  PERCENT DISCREPANCY =              0.68    PERCENT DISCREPANCY =             -0.10



1
 SUMMARY VOLUMETRIC BUDGET FOR GSFLOW 
 DATE: 05 19 1981              CUMULATIVE TIME STEP:     231
 MODFLOW STRESS PERIOD      1     CURRENT TIME STEP:     231     ITERATIONS:      44

 -----------------------------------------------------------------------------------

   CUMULATIVE VOLUMES               L**3   RATES FOR THIS TIME STEP           L**3/T
   ------------------                      ------------------------

                                     IN                                         IN
                                     --                                         --
        PRECIPITATION =        7.4671D+08          PRECIPITATION =        3447112.78
           STREAMFLOW =                               STREAMFLOW =                  
     GW BOUNDARY FLOW =                         GW BOUNDARY FLOW =                  


                                    OUT                                        OUT
                                    ---                                        ---
   EVAPOTRANSPIRATION =        4.6525D+08     EVAPOTRANSPIRATION =        1758873.67
           STREAMFLOW =        6.4162D+07             STREAMFLOW =         172527.06
     GW BOUNDARY FLOW =                         GW BOUNDARY FLOW =                  

   INFLOWS - OUTFLOWS =        2.1730D+08     INFLOWS - OUTFLOWS =        1515712.05
             --------                                   --------

 TOTAL STORAGE CHANGE =        2.1298D+08         STORAGE CHANGE =        1506840.79
       --------------                             --------------
         LAND SURFACE =        4.8302D+07           LAND SURFACE =       -3469349.29
            SOIL ZONE =        1.0092D+07              SOIL ZONE =        2136795.86
     UNSATURATED ZONE =        2911475.14       UNSATURATED ZONE =         -16341.48
       SATURATED ZONE =       -1.0535D+07         SATURATED ZONE =          67066.44
                LAKES =        1.6221D+08                  LAKES =        2788669.25

 OVERALL BUDGET ERROR =        4320149.27           BUDGET ERROR =           8871.26


  PERCENT DISCREPANCY =              0.58    PERCENT DISCREPANCY =              0.26



1
 SUMMARY VOLUMETRIC BUDGET FOR GSFLOW 
 DATE: 05 26 1981              CUMULATIVE TIME STEP:     238
 MODFLOW STRESS PERIOD      1     CURRENT TIME STEP:     238     ITERATIONS:      16

 -----------------------------------------------------------------------------------

   CUMULATIVE VOLUMES               L**3   RATES FOR THIS TIME STEP           L**3/T
   ------------------                      ------------------------

                                     IN                                         IN
                                     --                                         --
        PRECIPITATION =        7.7429D+08          PRECIPITATION =        1.7236D+07
           STREAMFLOW =                               STREAMFLOW =                  
     GW BOUNDARY FLOW =                         GW BOUNDARY FLOW =                  


                                    OUT                                        OUT
                                    ---                                        ---
   EVAPOTRANSPIRATION =        4.9677D+08     EVAPOTRANSPIRATION =        2648370.65
           STREAMFLOW =        6.5363D+07             STREAMFLOW =         180466.05
     GW BOUNDARY FLOW =                         GW BOUNDARY FLOW =                  

   INFLOWS - OUTFLOWS =        2.1216D+08     INFLOWS - OUTFLOWS =        1.4407D+07
             --------                                   --------

 TOTAL STORAGE CHANGE =        2.0736D+08         STORAGE CHANGE =        1.4225D+07
       --------------                             --------------
         LAND SURFACE =        3.1890D+07           LAND SURFACE =        -275022.79
            SOIL ZONE =        8659360.68              SOIL ZONE =        4715577.50
     UNSATURATED ZONE =        2748938.39       UNSATURATED ZONE =          14404.05
       SATURATED ZONE =       -1.0093D+07         SATURATED ZONE =         554192.94
                LAKES =        1.7415D+08                  LAKES =        9215835.00

 OVERALL BUDGET ERROR =        4798871.44           BUDGET ERROR =         181740.25


  PERCENT DISCREPANCY =              0.62    PERCENT DISCREPANCY =              1.06



1
 SUMMARY VOLUMETRIC BUDGET FOR GSFLOW 
 DATE: 06 02 1981              CUMULATIVE TIME STEP:     245
 MODFLOW STRESS PERIOD      1     CURRENT TIME STEP:     245     ITERATIONS:      76

 -----------------------------------------------------------------------------------

   CUMULATIVE VOLUMES               L**3   RATES FOR THIS TIME STEP           L**3/T
   ------------------                      ------------------------

                                     IN                                         IN
                                     --                                         --
        PRECIPITATION =        7.7429D+08          PRECIPITATION =                  
           STREAMFLOW =                               STREAMFLOW =                  
     GW BOUNDARY FLOW =                         GW BOUNDARY FLOW =                  


                                    OUT                                        OUT
                                    ---                                        ---
   EVAPOTRANSPIRATION =        5.3769D+08     EVAPOTRANSPIRATION =        5801043.44
           STREAMFLOW =        6.6583D+07             STREAMFLOW =         178725.95
     GW BOUNDARY FLOW =                         GW BOUNDARY FLOW =                  

   INFLOWS - OUTFLOWS =        1.7001D+08     INFLOWS - OUTFLOWS =       -5979769.40
             --------                                   --------

 TOTAL STORAGE CHANGE =        1.6520D+08         STORAGE CHANGE =       -5986894.98
       --------------                             --------------
         LAND SURFACE =        1.9162D+07           LAND SURFACE =       -1524432.06
            SOIL ZONE =       -7614010.25              SOIL ZONE =       -1966098.66
     UNSATURATED ZONE =       -1841953.65       UNSATURATED ZONE =        -125624.49
       SATURATED ZONE =       -8521723.49         SATURATED ZONE =        -221858.52
                LAKES =        1.6401D+08                  LAKES =       -2148881.25

 OVERALL BUDGET ERROR =        4812860.43           BUDGET ERROR =           7125.59


  PERCENT DISCREPANCY =              0.62    PERCENT DISCREPANCY =              0.12



1
 SUMMARY VOLUMETRIC BUDGET FOR GSFLOW 
 DATE: 06 09 1981              CUMULATIVE TIME STEP:     252
 MODFLOW STRESS PERIOD      1     CURRENT TIME STEP:     252     ITERATIONS:      49

 -----------------------------------------------------------------------------------

   CUMULATIVE VOLUMES               L**3   RATES FOR THIS TIME STEP           L**3/T
   ------------------                      ------------------------

                                     IN                                         IN
                                     --                                         --
        PRECIPITATION =        7.7752D+08          PRECIPITATION =                  
           STREAMFLOW =                               STREAMFLOW =                  
     GW BOUNDARY FLOW =                         GW BOUNDARY FLOW =                  


                                    OUT                                        OUT
                                    ---                                        ---
   EVAPOTRANSPIRATION =        5.7451D+08     EVAPOTRANSPIRATION =        5412680.94
           STREAMFLOW =        6.7827D+07             STREAMFLOW =         203133.83
     GW BOUNDARY FLOW =                         GW BOUNDARY FLOW =                  

   INFLOWS - OUTFLOWS =        1.3518D+08     INFLOWS - OUTFLOWS =       -5615814.77
             --------                                   --------

 TOTAL STORAGE CHANGE =        1.3038D+08         STORAGE CHANGE =       -5611753.24
       --------------                             --------------
         LAND SURFACE =        9796535.79           LAND SURFACE =        -964195.82
            SOIL ZONE =       -1.8502D+07              SOIL ZONE =       -1819630.45
     UNSATURATED ZONE =       -2671031.02       UNSATURATED ZONE =        -125676.77
       SATURATED ZONE =       -9754325.65         SATURATED ZONE =        -221584.20
                LAKES =        1.5151D+08                  LAKES =       -2480666.00

 OVERALL BUDGET ERROR =        4807133.26           BUDGET ERROR =          -4061.52


  PERCENT DISCREPANCY =              0.62    PERCENT DISCREPANCY =             -0.07



1
 SUMMARY VOLUMETRIC BUDGET FOR GSFLOW 
 DATE: 06 16 1981              CUMULATIVE TIME STEP:     259
 MODFLOW STRESS PERIOD      1     CURRENT TIME STEP:     259     ITERATIONS:      23

 -----------------------------------------------------------------------------------

   CUMULATIVE VOLUMES               L**3   RATES FOR THIS TIME STEP           L**3/T
   ------------------                      ------------------------

                                     IN                                         IN
                                     --                                         --
        PRECIPITATION =        7.7752D+08          PRECIPITATION =                  
           STREAMFLOW =                               STREAMFLOW =                  
     GW BOUNDARY FLOW =                         GW BOUNDARY FLOW =                  


                                    OUT                                        OUT
                                    ---                                        ---
   EVAPOTRANSPIRATION =        6.0221D+08     EVAPOTRANSPIRATION =        4686496.62
           STREAMFLOW =        7.0935D+07             STREAMFLOW =         702199.94
     GW BOUNDARY FLOW =                         GW BOUNDARY FLOW =                  

   INFLOWS - OUTFLOWS =        1.0438D+08     INFLOWS - OUTFLOWS =       -5388696.56
             --------                                   --------

 TOTAL STORAGE CHANGE =        9.9542D+07         STORAGE CHANGE =       -5390933.46
[...]
       SATURATED ZONE =       -5.3533D+07         SATURATED ZONE =        -195208.41
                LAKES =        7.2368D+08                  LAKES =       -4150395.00

 OVERALL BUDGET ERROR =        2.9044D+07           BUDGET ERROR =          31771.43


  PERCENT DISCREPANCY =              0.53    PERCENT DISCREPANCY =              0.70



1
 SUMMARY VOLUMETRIC BUDGET FOR GSFLOW 
 DATE: 11 29 1983              CUMULATIVE TIME STEP:    1155
 MODFLOW STRESS PERIOD      1     CURRENT TIME STEP:    1155     ITERATIONS:       3

 -----------------------------------------------------------------------------------

   CUMULATIVE VOLUMES               L**3   RATES FOR THIS TIME STEP           L**3/T
   ------------------                      ------------------------

                                     IN                                         IN
                                     --                                         --
        PRECIPITATION =        5.5463D+09          PRECIPITATION =        6461469.31
           STREAMFLOW =                               STREAMFLOW =                  
     GW BOUNDARY FLOW =                         GW BOUNDARY FLOW =                  


                                    OUT                                        OUT
                                    ---                                        ---
   EVAPOTRANSPIRATION =        2.8959D+09     EVAPOTRANSPIRATION =         356562.68
           STREAMFLOW =        1.6168D+09             STREAMFLOW =        4966705.50
     GW BOUNDARY FLOW =                         GW BOUNDARY FLOW =                  

   INFLOWS - OUTFLOWS =        1.0336D+09     INFLOWS - OUTFLOWS =        1138201.13
             --------                                   --------

 TOTAL STORAGE CHANGE =        1.0044D+09         STORAGE CHANGE =        1129278.74
       --------------                             --------------
         LAND SURFACE =        3.3540D+08           LAND SURFACE =        4606953.51
            SOIL ZONE =        5183182.29              SOIL ZONE =         -71188.87
     UNSATURATED ZONE =        1036275.82       UNSATURATED ZONE =          26562.18
       SATURATED ZONE =       -5.4740D+07         SATURATED ZONE =        -171070.58
                LAKES =        7.1751D+08                  LAKES =       -3261977.50

 OVERALL BUDGET ERROR =        2.9180D+07           BUDGET ERROR =           8922.39


  PERCENT DISCREPANCY =              0.53    PERCENT DISCREPANCY =              0.14



1
 SUMMARY VOLUMETRIC BUDGET FOR GSFLOW 
 DATE: 12 06 1983              CUMULATIVE TIME STEP:    1162
 MODFLOW STRESS PERIOD      1     CURRENT TIME STEP:    1162     ITERATIONS:       3

 -----------------------------------------------------------------------------------

   CUMULATIVE VOLUMES               L**3   RATES FOR THIS TIME STEP           L**3/T
   ------------------                      ------------------------

                                     IN                                         IN
                                     --                                         --
        PRECIPITATION =        5.6038D+09          PRECIPITATION =        3198161.89
           STREAMFLOW =                               STREAMFLOW =                  
     GW BOUNDARY FLOW =                         GW BOUNDARY FLOW =                  


                                    OUT                                        OUT
                                    ---                                        ---
   EVAPOTRANSPIRATION =        2.8996D+09     EVAPOTRANSPIRATION =         185752.81
           STREAMFLOW =        1.6522D+09             STREAMFLOW =        5064639.00
     GW BOUNDARY FLOW =                         GW BOUNDARY FLOW =                  

   INFLOWS - OUTFLOWS =        1.0520D+09     INFLOWS - OUTFLOWS =       -2052229.92
             --------                                   --------

 TOTAL STORAGE CHANGE =        1.0226D+09         STORAGE CHANGE =       -2074391.46
       --------------                             --------------
         LAND SURFACE =        3.7376D+08           LAND SURFACE =        2296320.51
            SOIL ZONE =        5748476.73              SOIL ZONE =        -131665.99
     UNSATURATED ZONE =        1317619.25       UNSATURATED ZONE =          28279.93
       SATURATED ZONE =       -5.5767D+07         SATURATED ZONE =        -163567.16
                LAKES =        6.9753D+08                  LAKES =       -4103758.75

 OVERALL BUDGET ERROR =        2.9425D+07           BUDGET ERROR =          22161.54


  PERCENT DISCREPANCY =              0.53    PERCENT DISCREPANCY =              0.42



1
 SUMMARY VOLUMETRIC BUDGET FOR GSFLOW 
 DATE: 12 13 1983              CUMULATIVE TIME STEP:    1169
 MODFLOW STRESS PERIOD      1     CURRENT TIME STEP:    1169     ITERATIONS:      18

 -----------------------------------------------------------------------------------

   CUMULATIVE VOLUMES               L**3   RATES FOR THIS TIME STEP           L**3/T
   ------------------                      ------------------------

                                     IN                                         IN
                                     --                                         --
        PRECIPITATION =        5.6998D+09          PRECIPITATION =        9594484.95
           STREAMFLOW =                               STREAMFLOW =                  
     GW BOUNDARY FLOW =                         GW BOUNDARY FLOW =                  


                                    OUT                                        OUT
                                    ---                                        ---
   EVAPOTRANSPIRATION =        2.9033D+09     EVAPOTRANSPIRATION =         226568.58
           STREAMFLOW =        1.6892D+09             STREAMFLOW =        5260512.00
     GW BOUNDARY FLOW =                         GW BOUNDARY FLOW =                  

   INFLOWS - OUTFLOWS =        1.1073D+09     INFLOWS - OUTFLOWS =        4107404.37
             --------                                   --------

 TOTAL STORAGE CHANGE =        1.0775D+09         STORAGE CHANGE =        4074352.01
       --------------                             --------------
         LAND SURFACE =        4.3778D+08           LAND SURFACE =        7019560.16
            SOIL ZONE =        6995222.39              SOIL ZONE =        -182939.50
     UNSATURATED ZONE =        1688258.12       UNSATURATED ZONE =          34890.88
       SATURATED ZONE =       -5.6392D+07         SATURATED ZONE =        -166734.53
                LAKES =        6.8740D+08                  LAKES =       -2630425.00

 OVERALL BUDGET ERROR =        2.9782D+07           BUDGET ERROR =          33052.36


  PERCENT DISCREPANCY =              0.52    PERCENT DISCREPANCY =              0.35



1
 SUMMARY VOLUMETRIC BUDGET FOR GSFLOW 
 DATE: 12 20 1983              CUMULATIVE TIME STEP:    1176
 MODFLOW STRESS PERIOD      1     CURRENT TIME STEP:    1176     ITERATIONS:       6

 -----------------------------------------------------------------------------------

   CUMULATIVE VOLUMES               L**3   RATES FOR THIS TIME STEP           L**3/T
   ------------------                      ------------------------

                                     IN                                         IN
                                     --                                         --
        PRECIPITATION =        5.7158D+09          PRECIPITATION =                  
           STREAMFLOW =                               STREAMFLOW =                  
     GW BOUNDARY FLOW =                         GW BOUNDARY FLOW =                  


                                    OUT                                        OUT
                                    ---                                        ---
   EVAPOTRANSPIRATION =        2.9111D+09     EVAPOTRANSPIRATION =         347259.03
           STREAMFLOW =        1.7277D+09             STREAMFLOW =        5578472.50
     GW BOUNDARY FLOW =                         GW BOUNDARY FLOW =                  

   INFLOWS - OUTFLOWS =        1.0769D+09     INFLOWS - OUTFLOWS =       -5925731.53
             --------                                   --------

 TOTAL STORAGE CHANGE =        1.0467D+09         STORAGE CHANGE =       -5947319.64
       --------------                             --------------
         LAND SURFACE =        4.4092D+08           LAND SURFACE =        -229898.36
            SOIL ZONE =        7731320.41              SOIL ZONE =        -181065.79
     UNSATURATED ZONE =        2190916.86       UNSATURATED ZONE =          40153.03
       SATURATED ZONE =       -5.7386D+07         SATURATED ZONE =        -174912.02
                LAKES =        6.5324D+08                  LAKES =       -5401596.50

 OVERALL BUDGET ERROR =        3.0212D+07           BUDGET ERROR =          21588.10


  PERCENT DISCREPANCY =              0.53    PERCENT DISCREPANCY =              0.36



1
 SUMMARY VOLUMETRIC BUDGET FOR GSFLOW 
 DATE: 12 27 1983              CUMULATIVE TIME STEP:    1183
 MODFLOW STRESS PERIOD      1     CURRENT TIME STEP:    1183     ITERATIONS:      20

 -----------------------------------------------------------------------------------

   CUMULATIVE VOLUMES               L**3   RATES FOR THIS TIME STEP           L**3/T
   ------------------                      ------------------------

                                     IN                                         IN
                                     --                                         --
        PRECIPITATION =        5.8917D+09          PRECIPITATION =        9594484.95
           STREAMFLOW =                               STREAMFLOW =                  
     GW BOUNDARY FLOW =                         GW BOUNDARY FLOW =                  


                                    OUT                                        OUT
                                    ---                                        ---
   EVAPOTRANSPIRATION =        2.9134D+09     EVAPOTRANSPIRATION =         396964.08
           STREAMFLOW =        1.7667D+09             STREAMFLOW =        5677393.00
     GW BOUNDARY FLOW =                         GW BOUNDARY FLOW =                  

   INFLOWS - OUTFLOWS =        1.2116D+09     INFLOWS - OUTFLOWS =        3520127.87
             --------                                   --------

 TOTAL STORAGE CHANGE =        1.1811D+09         STORAGE CHANGE =        3466449.27
       --------------                             --------------
         LAND SURFACE =        5.6571D+08           LAND SURFACE =        5841371.54
            SOIL ZONE =        8465549.51              SOIL ZONE =         227998.45
     UNSATURATED ZONE =        2450807.02       UNSATURATED ZONE =          91370.63
       SATURATED ZONE =       -5.7972D+07         SATURATED ZONE =         -82350.36
                LAKES =        6.6241D+08                  LAKES =       -2611941.00

 OVERALL BUDGET ERROR =        3.0501D+07           BUDGET ERROR =          53678.60


  PERCENT DISCREPANCY =              0.52    PERCENT DISCREPANCY =              0.56



1
 SUMMARY VOLUMETRIC BUDGET FOR GSFLOW 
 DATE: 01 03 1984              CUMULATIVE TIME STEP:    1190
 MODFLOW STRESS PERIOD      1     CURRENT TIME STEP:    1190     ITERATIONS:       5

 -----------------------------------------------------------------------------------

   CUMULATIVE VOLUMES               L**3   RATES FOR THIS TIME STEP           L**3/T
   ------------------                      ------------------------

                                     IN                                         IN
                                     --                                         --
        PRECIPITATION =        5.9235D+09          PRECIPITATION =                  
           STREAMFLOW =                               STREAMFLOW =                  
     GW BOUNDARY FLOW =                         GW BOUNDARY FLOW =                  


                                    OUT                                        OUT
                                    ---                                        ---
   EVAPOTRANSPIRATION =        2.9197D+09     EVAPOTRANSPIRATION =        1448390.85
           STREAMFLOW =        1.8063D+09             STREAMFLOW =        5603065.50
     GW BOUNDARY FLOW =                         GW BOUNDARY FLOW =                  

   INFLOWS - OUTFLOWS =        1.1974D+09     INFLOWS - OUTFLOWS =       -7051456.35
             --------                                   --------

 TOTAL STORAGE CHANGE =        1.1665D+09         STORAGE CHANGE =       -7073339.12
       --------------                             --------------
         LAND SURFACE =        5.7870D+08           LAND SURFACE =        -976138.39
            SOIL ZONE =        9176371.29              SOIL ZONE =        -186842.65
     UNSATURATED ZONE =        3021677.40       UNSATURATED ZONE =          42280.24
       SATURATED ZONE =       -5.8854D+07         SATURATED ZONE =        -189153.31
                LAKES =        6.3444D+08                  LAKES =       -5763485.00

 OVERALL BUDGET ERROR =        3.0899D+07           BUDGET ERROR =          21882.76


  PERCENT DISCREPANCY =              0.52    PERCENT DISCREPANCY =              0.31



1
 SUMMARY VOLUMETRIC BUDGET FOR GSFLOW 
 DATE: 01 10 1984              CUMULATIVE TIME STEP:    1197
 MODFLOW STRESS PERIOD      1     CURRENT TIME STEP:    1197     ITERATIONS:       5

 -----------------------------------------------------------------------------------

   CUMULATIVE VOLUMES               L**3   RATES FOR THIS TIME STEP           L**3/T
   ------------------                      ------------------------

                                     IN                                         IN
                                     --                                         --
        PRECIPITATION =        5.9235D+09          PRECIPITATION =                  
           STREAMFLOW =                               STREAMFLOW =                  
     GW BOUNDARY FLOW =                         GW BOUNDARY FLOW =                  


                                    OUT                                        OUT
                                    ---                                        ---
   EVAPOTRANSPIRATION =        2.9322D+09     EVAPOTRANSPIRATION =        1729034.19
           STREAMFLOW =        1.8438D+09             STREAMFLOW =        5235933.50
     GW BOUNDARY FLOW =                         GW BOUNDARY FLOW =                  

   INFLOWS - OUTFLOWS =        1.1475D+09     INFLOWS - OUTFLOWS =       -6964967.69
             --------                                   --------

 TOTAL STORAGE CHANGE =        1.1164D+09         STORAGE CHANGE =       -7002665.19
       --------------                             --------------
         LAND SURFACE =        5.6643D+08           LAND SURFACE =       -2016428.22
            SOIL ZONE =        1.0298D+07              SOIL ZONE =         296466.89
     UNSATURATED ZONE =        3385472.33       UNSATURATED ZONE =          76160.84
       SATURATED ZONE =       -5.9641D+07         SATURATED ZONE =         -72649.70
                LAKES =        5.9591D+08                  LAKES =       -5286215.00

 OVERALL BUDGET ERROR =        3.1123D+07           BUDGET ERROR =          37697.51


  PERCENT DISCREPANCY =              0.53    PERCENT DISCREPANCY =              0.54



1
 SUMMARY VOLUMETRIC BUDGET FOR GSFLOW 
 DATE: 01 17 1984              CUMULATIVE TIME STEP:    1204
 MODFLOW STRESS PERIOD      1     CURRENT TIME STEP:    1204     ITERATIONS:       3

 -----------------------------------------------------------------------------------

   CUMULATIVE VOLUMES               L**3   RATES FOR THIS TIME STEP           L**3/T
   ------------------                      ------------------------

                                     IN                                         IN
                                     --                                         --
        PRECIPITATION =        5.9475D+09          PRECIPITATION =                  
           STREAMFLOW =                               STREAMFLOW =                  
     GW BOUNDARY FLOW =                         GW BOUNDARY FLOW =                  


                                    OUT                                        OUT
                                    ---                                        ---
   EVAPOTRANSPIRATION =        2.9359D+09     EVAPOTRANSPIRATION =         514662.57
           STREAMFLOW =        1.8795D+09             STREAMFLOW =        5015584.50
     GW BOUNDARY FLOW =                         GW BOUNDARY FLOW =                  

   INFLOWS - OUTFLOWS =        1.1320D+09     INFLOWS - OUTFLOWS =       -5530247.07
             --------                                   --------

 TOTAL STORAGE CHANGE =        1.1008D+09         STORAGE CHANGE =       -5542023.29
       --------------                             --------------
         LAND SURFACE =        5.8186D+08           LAND SURFACE =        -369940.34
            SOIL ZONE =        9292768.06              SOIL ZONE =        -102336.55
     UNSATURATED ZONE =        3440684.92       UNSATURATED ZONE =          -5199.19
       SATURATED ZONE =       -6.0650D+07         SATURATED ZONE =        -150989.72
                LAKES =        5.6690D+08                  LAKES =       -4913557.50

 OVERALL BUDGET ERROR =        3.1201D+07           BUDGET ERROR =          11776.22


  PERCENT DISCREPANCY =              0.53    PERCENT DISCREPANCY =              0.21



1
 SUMMARY VOLUMETRIC BUDGET FOR GSFLOW 
 DATE: 01 24 1984              CUMULATIVE TIME STEP:    1211
 MODFLOW STRESS PERIOD      1     CURRENT TIME STEP:    1211     ITERATIONS:       9

 -----------------------------------------------------------------------------------

   CUMULATIVE VOLUMES               L**3   RATES FOR THIS TIME STEP           L**3/T
   ------------------                      ------------------------

                                     IN                                         IN
                                     --                                         --
        PRECIPITATION =        5.9535D+09          PRECIPITATION =                  
           STREAMFLOW =                               STREAMFLOW =                  
     GW BOUNDARY FLOW =                         GW BOUNDARY FLOW =                  


                                    OUT                                        OUT
                                    ---                                        ---
   EVAPOTRANSPIRATION =        2.9413D+09     EVAPOTRANSPIRATION =        1048021.26
           STREAMFLOW =        1.9143D+09             STREAMFLOW =        4917690.00
     GW BOUNDARY FLOW =                         GW BOUNDARY FLOW =                  

   INFLOWS - OUTFLOWS =        1.0978D+09     INFLOWS - OUTFLOWS =       -5965711.26
             --------                                   --------

 TOTAL STORAGE CHANGE =        1.0666D+09         STORAGE CHANGE =       -5975797.48
       --------------                             --------------
         LAND SURFACE =        5.8317D+08           LAND SURFACE =        -583964.56
            SOIL ZONE =        8756310.16              SOIL ZONE =         -66884.55
     UNSATURATED ZONE =        3249776.17       UNSATURATED ZONE =         -42440.64
       SATURATED ZONE =       -6.1647D+07         SATURATED ZONE =        -136285.73
                LAKES =        5.3305D+08                  LAKES =       -5146222.00

 OVERALL BUDGET ERROR =        3.1262D+07           BUDGET ERROR =          10086.22


  PERCENT DISCREPANCY =              0.53    PERCENT DISCREPANCY =              0.17



