1
 SUMMARY VOLUMETRIC BUDGET FOR GSFLOW 
 DATE: 10 07 1980              CUMULATIVE TIME STEP:       7
 MODFLOW STRESS PERIOD      1     CURRENT TIME STEP:       7     ITERATIONS:      14

 -----------------------------------------------------------------------------------

   CUMULATIVE VOLUMES               L**3   RATES FOR THIS TIME STEP           L**3/T
   ------------------                      ------------------------

                                     IN                                         IN
                                     --                                         --
        PRECIPITATION =                            PRECIPITATION =                  
           STREAMFLOW =                               STREAMFLOW =                  
     GW BOUNDARY FLOW =                         GW BOUNDARY FLOW =                  


                                    OUT                                        OUT
                                    ---                                        ---
   EVAPOTRANSPIRATION =        1.5511D+07     EVAPOTRANSPIRATION =        1478881.36
           STREAMFLOW =        1672058.77             STREAMFLOW =         183556.67
     GW BOUNDARY FLOW =                         GW BOUNDARY FLOW =                  

   INFLOWS - OUTFLOWS =       -1.7183D+07     INFLOWS - OUTFLOWS =       -1662438.03
             --------                                   --------

 TOTAL STORAGE CHANGE =       -1.7157D+07         STORAGE CHANGE =       -1664381.50
       --------------                             --------------
         LAND SURFACE =                             LAND SURFACE =                  
            SOIL ZONE =       -5762960.39              SOIL ZONE =        -270465.11
     UNSATURATED ZONE =       -1007862.74       UNSATURATED ZONE =         -54922.61
       SATURATED ZONE =       -1300626.94         SATURATED ZONE =        -269871.91
                LAKES =       -9085744.75                  LAKES =       -1069121.88

 OVERALL BUDGET ERROR =         -25985.08           BUDGET ERROR =           1943.46


  PERCENT DISCREPANCY =             -0.15    PERCENT DISCREPANCY =              0.12



1
 SUMMARY VOLUMETRIC BUDGET FOR GSFLOW 
 DATE: 10 14 1980              CUMULATIVE TIME STEP:      14
 MODFLOW STRESS PERIOD      1     CURRENT TIME STEP:      14     ITERATIONS:       3

 -----------------------------------------------------------------------------------

   CUMULATIVE VOLUMES               L**3   RATES FOR THIS TIME STEP           L**3/T
   ------------------                      ------------------------

                                     IN                                         IN
                                     --                                         --
        PRECIPITATION =        1.3442D+07          PRECIPITATION =        6721104.51
           STREAMFLOW =                               STREAMFLOW =                  
     GW BOUNDARY FLOW =                         GW BOUNDARY FLOW =                  


                                    OUT                                        OUT
                                    ---                                        ---
   EVAPOTRANSPIRATION =        2.3219D+07     EVAPOTRANSPIRATION =         507117.51
           STREAMFLOW =        2279257.54             STREAMFLOW =          34825.50
     GW BOUNDARY FLOW =                         GW BOUNDARY FLOW =                  

   INFLOWS - OUTFLOWS =       -1.2056D+07     INFLOWS - OUTFLOWS =        6179161.50
             --------                                   --------

 TOTAL STORAGE CHANGE =       -1.2123D+07         STORAGE CHANGE =        6136212.93
       --------------                             --------------
         LAND SURFACE =        2292332.54           LAND SURFACE =        1396244.76
            SOIL ZONE =         153423.20              SOIL ZONE =        3131504.41
     UNSATURATED ZONE =       -1444973.64       UNSATURATED ZONE =         -57230.39
       SATURATED ZONE =       -2729795.11         SATURATED ZONE =        -121178.61
                LAKES =       -1.0394D+07                  LAKES =        1786872.75

 OVERALL BUDGET ERROR =          66945.99           BUDGET ERROR =          42948.57


  PERCENT DISCREPANCY =              0.26    PERCENT DISCREPANCY =              0.64



1
 SUMMARY VOLUMETRIC BUDGET FOR GSFLOW 
 DATE: 10 21 1980              CUMULATIVE TIME STEP:      21
 MODFLOW STRESS PERIOD      1     CURRENT TIME STEP:      21     ITERATIONS:       3

 -----------------------------------------------------------------------------------

   CUMULATIVE VOLUMES               L**3   RATES FOR THIS TIME STEP           L**3/T
   ------------------                      ------------------------

                                     IN                                         IN
                                     --                                         --
        PRECIPITATION =        1.6803D+07          PRECIPITATION =                  
           STREAMFLOW =                               STREAMFLOW =                  
     GW BOUNDARY FLOW =                         GW BOUNDARY FLOW =                  


                                    OUT                                        OUT
                                    ---                                        ---
   EVAPOTRANSPIRATION =        3.0233D+07     EVAPOTRANSPIRATION =        1467066.03
           STREAMFLOW =        3039696.79             STREAMFLOW =         364392.81
     GW BOUNDARY FLOW =                         GW BOUNDARY FLOW =                  

   INFLOWS - OUTFLOWS =       -1.6470D+07     INFLOWS - OUTFLOWS =       -1831458.84
             --------                                   --------

 TOTAL STORAGE CHANGE =       -1.6550D+07         STORAGE CHANGE =       -1828178.11
       --------------                             --------------
         LAND SURFACE =         450933.11           LAND SURFACE =        -157820.81
            SOIL ZONE =        -328511.74              SOIL ZONE =        -679592.61
     UNSATURATED ZONE =       -1881069.97       UNSATURATED ZONE =         -58658.82
       SATURATED ZONE =       -3772063.80         SATURATED ZONE =        -158367.25
                LAKES =       -1.1019D+07                  LAKES =        -773738.62

 OVERALL BUDGET ERROR =          79955.51           BUDGET ERROR =          -3280.73


  PERCENT DISCREPANCY =              0.24    PERCENT DISCREPANCY =             -0.18



1
 SUMMARY VOLUMETRIC BUDGET FOR GSFLOW 
 DATE: 10 28 1980              CUMULATIVE TIME STEP:      28
 MODFLOW STRESS PERIOD      1     CURRENT TIME STEP:      28     ITERATIONS:       4

 -----------------------------------------------------------------------------------

   CUMULATIVE VOLUMES               L**3   RATES FOR THIS TIME STEP           L**3/T
   ------------------                      ------------------------

                                     IN                                         IN
                                     --                                         --
        PRECIPITATION =        4.0327D+07          PRECIPITATION =                  
           STREAMFLOW =                               STREAMFLOW =                  
     GW BOUNDARY FLOW =                         GW BOUNDARY FLOW =                  


                                    OUT                                        OUT
                                    ---                                        ---
   EVAPOTRANSPIRATION =        3.7280D+07     EVAPOTRANSPIRATION =         461412.22
           STREAMFLOW =        5483164.94             STREAMFLOW =         342843.84
     GW BOUNDARY FLOW =                         GW BOUNDARY FLOW =                  

   INFLOWS - OUTFLOWS =       -2436231.73     INFLOWS - OUTFLOWS =        -804256.06
             --------                                   --------

 TOTAL STORAGE CHANGE =       -3044895.22         STORAGE CHANGE =        -769323.73
       --------------                             --------------
         LAND SURFACE =        4658064.73           LAND SURFACE =        -166816.91
            SOIL ZONE =        7112345.00              SOIL ZONE =        -271772.25
     UNSATURATED ZONE =       -2174529.23       UNSATURATED ZONE =         -31871.42
       SATURATED ZONE =       -4523351.12         SATURATED ZONE =        -126025.81
                LAKES =       -8117424.59                  LAKES =        -172837.34

 OVERALL BUDGET ERROR =         608663.49           BUDGET ERROR =         -34932.33

  ***WARNING, FLUX RATES OFF > 3%

  PERCENT DISCREPANCY =              1.41    PERCENT DISCREPANCY =             -4.44



1
 SUMMARY VOLUMETRIC BUDGET FOR GSFLOW 
 DATE: 11 04 1980              CUMULATIVE TIME STEP:      35
 MODFLOW STRESS PERIOD      1     CURRENT TIME STEP:      35     ITERATIONS:       7

 -----------------------------------------------------------------------------------

   CUMULATIVE VOLUMES               L**3   RATES FOR THIS TIME STEP           L**3/T
   ------------------                      ------------------------

                                     IN                                         IN
                                     --                                         --
        PRECIPITATION =        5.0408D+07          PRECIPITATION =                  
           STREAMFLOW =                               STREAMFLOW =                  
     GW BOUNDARY FLOW =                         GW BOUNDARY FLOW =                  


                                    OUT                                        OUT
                                    ---                                        ---
   EVAPOTRANSPIRATION =        5.2114D+07     EVAPOTRANSPIRATION =        2794238.89
           STREAMFLOW =        7932063.29             STREAMFLOW =         350030.38
     GW BOUNDARY FLOW =                         GW BOUNDARY FLOW =                  

   INFLOWS - OUTFLOWS =       -9638044.95     INFLOWS - OUTFLOWS =       -3144269.27
             --------                                   --------

 TOTAL STORAGE CHANGE =       -1.0599D+07         STORAGE CHANGE =       -3149762.82
       --------------                             --------------
         LAND SURFACE =         206598.96           LAND SURFACE =         -41867.41
            SOIL ZONE =        3878930.27              SOIL ZONE =       -1780658.55
     UNSATURATED ZONE =       -2137064.42       UNSATURATED ZONE =         -46057.97
       SATURATED ZONE =       -5062767.91         SATURATED ZONE =        -247453.14
                LAKES =       -7484228.40                  LAKES =       -1033725.75

 OVERALL BUDGET ERROR =         960486.55           BUDGET ERROR =           5493.55


  PERCENT DISCREPANCY =              1.59    PERCENT DISCREPANCY =              0.17



1
 SUMMARY VOLUMETRIC BUDGET FOR GSFLOW 
 DATE: 11 11 1980              CUMULATIVE TIME STEP:      42
 MODFLOW STRESS PERIOD      1     CURRENT TIME STEP:      42     ITERATIONS:       5

 -----------------------------------------------------------------------------------

   CUMULATIVE VOLUMES               L**3   RATES FOR THIS TIME STEP           L**3/T
   ------------------                      ------------------------

                                     IN                                         IN
                                     --                                         --
        PRECIPITATION =        7.9485D+07          PRECIPITATION =        3230734.65
           STREAMFLOW =                               STREAMFLOW =                  
     GW BOUNDARY FLOW =                         GW BOUNDARY FLOW =                  


                                    OUT                                        OUT
                                    ---                                        ---
   EVAPOTRANSPIRATION =        6.9953D+07     EVAPOTRANSPIRATION =        1696113.67
           STREAMFLOW =        9809691.39             STREAMFLOW =         250092.14
     GW BOUNDARY FLOW =                         GW BOUNDARY FLOW =                  

   INFLOWS - OUTFLOWS =        -277561.98     INFLOWS - OUTFLOWS =        1284528.84
             --------                                   --------

 TOTAL STORAGE CHANGE =       -1502714.80         STORAGE CHANGE =        1148813.67
       --------------                             --------------
         LAND SURFACE =        3266569.49           LAND SURFACE =        -110998.46
            SOIL ZONE =        8678321.66              SOIL ZONE =         699212.24
     UNSATURATED ZONE =       -2168565.26       UNSATURATED ZONE =          39575.42
       SATURATED ZONE =       -5933053.97         SATURATED ZONE =         -35744.53
                LAKES =       -5345986.71                  LAKES =         556769.00

 OVERALL BUDGET ERROR =        1225152.82           BUDGET ERROR =         135715.17

  ***WARNING, FLUX RATES OFF > 3%

  PERCENT DISCREPANCY =              1.52    PERCENT DISCREPANCY =              4.29



1
 SUMMARY VOLUMETRIC BUDGET FOR GSFLOW 
 DATE: 11 18 1980              CUMULATIVE TIME STEP:      49
 MODFLOW STRESS PERIOD      1     CURRENT TIME STEP:      49     ITERATIONS:       3

 -----------------------------------------------------------------------------------

   CUMULATIVE VOLUMES               L**3   RATES FOR THIS TIME STEP           L**3/T
   ------------------                      ------------------------

                                     IN                                         IN
                                     --                                         --
        PRECIPITATION =        8.5946D+07          PRECIPITATION =                  
           STREAMFLOW =                               STREAMFLOW =                  
     GW BOUNDARY FLOW =                         GW BOUNDARY FLOW =                  


                                    OUT                                        OUT
                                    ---                                        ---
   EVAPOTRANSPIRATION =        7.6245D+07     EVAPOTRANSPIRATION =        1510955.21
           STREAMFLOW =        1.1638D+07             STREAMFLOW =         312770.31
     GW BOUNDARY FLOW =                         GW BOUNDARY FLOW =                  

   INFLOWS - OUTFLOWS =       -1937198.90     INFLOWS - OUTFLOWS =       -1823725.52
             --------                                   --------

 TOTAL STORAGE CHANGE =       -2898672.58         STORAGE CHANGE =       -1769375.55
       --------------                             --------------
         LAND SURFACE =        3785521.16           LAND SURFACE =        -428824.73
            SOIL ZONE =        8057476.33              SOIL ZONE =        -668178.83
     UNSATURATED ZONE =       -2095848.85       UNSATURATED ZONE =          19793.61
       SATURATED ZONE =       -7168063.73         SATURATED ZONE =        -170627.75
                LAKES =       -5477757.50                  LAKES =        -521537.84

 OVERALL BUDGET ERROR =         961473.68           BUDGET ERROR =         -54349.98

  ***WARNING, FLUX RATES OFF > 3%

  PERCENT DISCREPANCY =              1.09    PERCENT DISCREPANCY =             -3.03



1
 SUMMARY VOLUMETRIC BUDGET FOR GSFLOW 
 DATE: 11 25 1980              CUMULATIVE TIME STEP:      56
 MODFLOW STRESS PERIOD      1     CURRENT TIME STEP:      56     ITERATIONS:       3

 -----------------------------------------------------------------------------------

   CUMULATIVE VOLUMES               L**3   RATES FOR THIS TIME STEP           L**3/T
   ------------------                      ------------------------

                                     IN                                         IN
                                     --                                         --
        PRECIPITATION =        8.9177D+07          PRECIPITATION =                  
           STREAMFLOW =                               STREAMFLOW =                  
     GW BOUNDARY FLOW =                         GW BOUNDARY FLOW =                  


                                    OUT                                        OUT
                                    ---                                        ---
   EVAPOTRANSPIRATION =        8.3095D+07     EVAPOTRANSPIRATION =         272926.42
           STREAMFLOW =        1.4055D+07             STREAMFLOW =         437097.81
     GW BOUNDARY FLOW =                         GW BOUNDARY FLOW =                  

   INFLOWS - OUTFLOWS =       -7972266.79     INFLOWS - OUTFLOWS =        -710024.23
             --------                                   --------

 TOTAL STORAGE CHANGE =       -9017014.14         STORAGE CHANGE =        -730969.88
       --------------                             --------------
         LAND SURFACE =        3623166.05           LAND SURFACE =         -24347.90
            SOIL ZONE =        6057963.00              SOIL ZONE =        -183622.56
     UNSATURATED ZONE =       -2108552.62       UNSATURATED ZONE =         -17509.20
       SATURATED ZONE =       -8405950.95         SATURATED ZONE =        -182879.81
                LAKES =       -8183639.62                  LAKES =        -322610.41

 OVERALL BUDGET ERROR =        1044747.35           BUDGET ERROR =          20945.64


  PERCENT DISCREPANCY =              1.07    PERCENT DISCREPANCY =              2.91



1
 SUMMARY VOLUMETRIC BUDGET FOR GSFLOW 
 DATE: 12 02 1980              CUMULATIVE TIME STEP:      63
 MODFLOW STRESS PERIOD      1     CURRENT TIME STEP:      63     ITERATIONS:       4

 -----------------------------------------------------------------------------------

   CUMULATIVE VOLUMES               L**3   RATES FOR THIS TIME STEP           L**3/T
   ------------------                      ------------------------

                                     IN                                         IN
                                     --                                         --
        PRECIPITATION =        1.0846D+08          PRECIPITATION =        3198161.89
           STREAMFLOW =                               STREAMFLOW =                  
     GW BOUNDARY FLOW =                         GW BOUNDARY FLOW =                  


                                    OUT                                        OUT
                                    ---                                        ---
   EVAPOTRANSPIRATION =        9.0643D+07     EVAPOTRANSPIRATION =        1276583.94
           STREAMFLOW =        1.7318D+07             STREAMFLOW =         437214.94
     GW BOUNDARY FLOW =                         GW BOUNDARY FLOW =                  

   INFLOWS - OUTFLOWS =         502941.74     INFLOWS - OUTFLOWS =        1484363.02
             --------                                   --------

 TOTAL STORAGE CHANGE =       -1030328.82         STORAGE CHANGE =        1308289.97
       --------------                             --------------
         LAND SURFACE =        6315725.60           LAND SURFACE =       -1022199.63
            SOIL ZONE =        9942921.22              SOIL ZONE =        1753866.00
     UNSATURATED ZONE =       -1959822.92       UNSATURATED ZONE =          56595.49
       SATURATED ZONE =       -9139162.23         SATURATED ZONE =         -41997.77
                LAKES =       -6189990.50                  LAKES =         562025.88

 OVERALL BUDGET ERROR =        1533270.56           BUDGET ERROR =         176073.04

  ***WARNING, FLUX RATES OFF > 3%

  PERCENT DISCREPANCY =              1.41    PERCENT DISCREPANCY =              5.66



1
 SUMMARY VOLUMETRIC BUDGET FOR GSFLOW 
 DATE: 12 09 1980              CUMULATIVE TIME STEP:      70
 MODFLOW STRESS PERIOD      1     CURRENT TIME STEP:      70     ITERATIONS:       3

 -----------------------------------------------------------------------------------

   CUMULATIVE VOLUMES               L**3   RATES FOR THIS TIME STEP           L**3/T
   ------------------                      ------------------------

                                     IN                                         IN
                                     --                                         --
        PRECIPITATION =        1.7882D+08          PRECIPITATION =                  
           STREAMFLOW =                               STREAMFLOW =                  
     GW BOUNDARY FLOW =                         GW BOUNDARY FLOW =                  


                                    OUT                                        OUT
                                    ---                                        ---
   EVAPOTRANSPIRATION =        9.2974D+07     EVAPOTRANSPIRATION =         386685.87
           STREAMFLOW =        2.0282D+07             STREAMFLOW =         420980.56
     GW BOUNDARY FLOW =                         GW BOUNDARY FLOW =                  

   INFLOWS - OUTFLOWS =        6.5567D+07     INFLOWS - OUTFLOWS =        -807666.43
             --------                                   --------

 TOTAL STORAGE CHANGE =        6.3712D+07         STORAGE CHANGE =        -824848.33
       --------------                             --------------
         LAND SURFACE =        5.0168D+07           LAND SURFACE =        -246649.42
            SOIL ZONE =        1.3107D+07              SOIL ZONE =        -140630.35
     UNSATURATED ZONE =       -1523919.06       UNSATURATED ZONE =          40026.37
       SATURATED ZONE =       -1.0110D+07         SATURATED ZONE =        -207505.19
                LAKES =        1.2071D+07                  LAKES =        -270089.75

 OVERALL BUDGET ERROR =        1855143.04           BUDGET ERROR =          17181.90


  PERCENT DISCREPANCY =              1.04    PERCENT DISCREPANCY =              2.10



1
 SUMMARY VOLUMETRIC BUDGET FOR GSFLOW 
 DATE: 12 16 1980              CUMULATIVE TIME STEP:      77
 MODFLOW STRESS PERIOD      1     CURRENT TIME STEP:      77     ITERATIONS:       3

 -----------------------------------------------------------------------------------

   CUMULATIVE VOLUMES               L**3   RATES FOR THIS TIME STEP           L**3/T
   ------------------                      ------------------------

                                     IN                                         IN
                                     --                                         --
        PRECIPITATION =        1.7882D+08          PRECIPITATION =                  
           STREAMFLOW =                               STREAMFLOW =                  
     GW BOUNDARY FLOW =                         GW BOUNDARY FLOW =                  


                                    OUT                                        OUT
                                    ---                                        ---
   EVAPOTRANSPIRATION =        9.9447D+07     EVAPOTRANSPIRATION =        1457720.42
           STREAMFLOW =        2.3263D+07             STREAMFLOW =         430698.91
     GW BOUNDARY FLOW =                         GW BOUNDARY FLOW =                  

   INFLOWS - OUTFLOWS =        5.6114D+07     INFLOWS - OUTFLOWS =       -1888419.33
             --------                                   --------

 TOTAL STORAGE CHANGE =        5.4069D+07         STORAGE CHANGE =       -1926303.15
       --------------                             --------------
         LAND SURFACE =        4.5744D+07           LAND SURFACE =       -1259208.96
            SOIL ZONE =        1.2796D+07              SOIL ZONE =         237906.04
     UNSATURATED ZONE =       -1377837.03       UNSATURATED ZONE =          20128.61
       SATURATED ZONE =       -1.1441D+07         SATURATED ZONE =        -168638.22
                LAKES =        8347863.48                  LAKES =        -756490.62

 OVERALL BUDGET ERROR =        2044534.09           BUDGET ERROR =          37883.83


  PERCENT DISCREPANCY =              1.15    PERCENT DISCREPANCY =              1.99



1
 SUMMARY VOLUMETRIC BUDGET FOR GSFLOW 
 DATE: 12 23 1980              CUMULATIVE TIME STEP:      84
 MODFLOW STRESS PERIOD      1     CURRENT TIME STEP:      84     ITERATIONS:       3

 -----------------------------------------------------------------------------------

   CUMULATIVE VOLUMES               L**3   RATES FOR THIS TIME STEP           L**3/T
   ------------------                      ------------------------

                                     IN                                         IN
                                     --                                         --
        PRECIPITATION =        1.8522D+08          PRECIPITATION =        3198161.89
           STREAMFLOW =                               STREAMFLOW =                  
     GW BOUNDARY FLOW =                         GW BOUNDARY FLOW =                  


                                    OUT                                        OUT
                                    ---                                        ---
   EVAPOTRANSPIRATION =        1.0782D+08     EVAPOTRANSPIRATION =        1096960.74
           STREAMFLOW =        2.6316D+07             STREAMFLOW =         443565.56
     GW BOUNDARY FLOW =                         GW BOUNDARY FLOW =                  

   INFLOWS - OUTFLOWS =        5.1083D+07     INFLOWS - OUTFLOWS =        1657635.59
             --------                                   --------

 TOTAL STORAGE CHANGE =        4.8721D+07         STORAGE CHANGE =        1507717.69
       --------------                             --------------
         LAND SURFACE =        4.0221D+07           LAND SURFACE =        -367739.35
            SOIL ZONE =        1.5774D+07              SOIL ZONE =        1371225.58
     UNSATURATED ZONE =       -1092824.11       UNSATURATED ZONE =          94422.51
       SATURATED ZONE =       -1.2355D+07         SATURATED ZONE =         -80737.02
                LAKES =        6174130.76                  LAKES =         490545.97

 OVERALL BUDGET ERROR =        2362210.27           BUDGET ERROR =         149917.90

  ***WARNING, FLUX RATES OFF > 3%

  PERCENT DISCREPANCY =              1.28    PERCENT DISCREPANCY =              4.80



1
 SUMMARY VOLUMETRIC BUDGET FOR GSFLOW 
 DATE: 12 30 1980              CUMULATIVE TIME STEP:      91
 MODFLOW STRESS PERIOD      1     CURRENT TIME STEP:      91     ITERATIONS:       4

 -----------------------------------------------------------------------------------

   CUMULATIVE VOLUMES               L**3   RATES FOR THIS TIME STEP           L**3/T
   ------------------                      ------------------------

                                     IN                                         IN
                                     --                                         --
        PRECIPITATION =        1.8522D+08          PRECIPITATION =                  
           STREAMFLOW =                               STREAMFLOW =                  
     GW BOUNDARY FLOW =                         GW BOUNDARY FLOW =                  


                                    OUT                                        OUT
                                    ---                                        ---
   EVAPOTRANSPIRATION =        1.1805D+08     EVAPOTRANSPIRATION =        1240471.41
           STREAMFLOW =        2.9399D+07             STREAMFLOW =         445279.78
     GW BOUNDARY FLOW =                         GW BOUNDARY FLOW =                  

   INFLOWS - OUTFLOWS =        3.7767D+07     INFLOWS - OUTFLOWS =       -1685751.19
             --------                                   --------

 TOTAL STORAGE CHANGE =        3.5245D+07         STORAGE CHANGE =       -1698450.71
       --------------                             --------------
         LAND SURFACE =        3.3989D+07           LAND SURFACE =        -561684.68
            SOIL ZONE =        1.3820D+07              SOIL ZONE =        -403942.48
     UNSATURATED ZONE =        -774728.99       UNSATURATED ZONE =          33879.43
       SATURATED ZONE =       -1.3409D+07         SATURATED ZONE =        -163195.86
                LAKES =        1621037.61                  LAKES =        -603507.12

 OVERALL BUDGET ERROR =        2521720.26           BUDGET ERROR =          12699.52


  PERCENT DISCREPANCY =              1.37    PERCENT DISCREPANCY =              0.75



1
 SUMMARY VOLUMETRIC BUDGET FOR GSFLOW 
 DATE: 01 06 1981              CUMULATIVE TIME STEP:      98
 MODFLOW STRESS PERIOD      1     CURRENT TIME STEP:      98     ITERATIONS:      14

 -----------------------------------------------------------------------------------

   CUMULATIVE VOLUMES               L**3   RATES FOR THIS TIME STEP           L**3/T
   ------------------                      ------------------------

                                     IN                                         IN
                                     --                                         --
        PRECIPITATION =        2.0923D+08          PRECIPITATION =                  
           STREAMFLOW =                               STREAMFLOW =                  
     GW BOUNDARY FLOW =                         GW BOUNDARY FLOW =                  


                                    OUT                                        OUT
                                    ---                                        ---
   EVAPOTRANSPIRATION =        1.2563D+08     EVAPOTRANSPIRATION =        1141256.29
           STREAMFLOW =        3.2519D+07             STREAMFLOW =         445540.84
     GW BOUNDARY FLOW =                         GW BOUNDARY FLOW =                  

   INFLOWS - OUTFLOWS =        5.1081D+07     INFLOWS - OUTFLOWS =       -1586797.13
             --------                                   --------

 TOTAL STORAGE CHANGE =        4.8460D+07         STORAGE CHANGE =       -1620551.92
       --------------                             --------------
         LAND SURFACE =        3.9010D+07           LAND SURFACE =        -361344.25
            SOIL ZONE =        1.7030D+07              SOIL ZONE =        -582752.61
     UNSATURATED ZONE =        -189446.53       UNSATURATED ZONE =          81132.48
       SATURATED ZONE =       -1.3972D+07         SATURATED ZONE =        -219971.47
                LAKES =        6580634.14                  LAKES =        -537616.06

 OVERALL BUDGET ERROR =        2620942.41           BUDGET ERROR =          33754.79


  PERCENT DISCREPANCY =              1.26    PERCENT DISCREPANCY =              2.10



1
 SUMMARY VOLUMETRIC BUDGET FOR GSFLOW 
 DATE: 01 13 1981              CUMULATIVE TIME STEP:     105
 MODFLOW STRESS PERIOD      1     CURRENT TIME STEP:     105     ITERATIONS:       3

 -----------------------------------------------------------------------------------

   CUMULATIVE VOLUMES               L**3   RATES FOR THIS TIME STEP           L**3/T
   ------------------                      ------------------------

                                     IN                                         IN
                                     --                                         --
        PRECIPITATION =        2.1223D+08          PRECIPITATION =                  
           STREAMFLOW =                               STREAMFLOW =                  
     GW BOUNDARY FLOW =                         GW BOUNDARY FLOW =                  


                                    OUT                                        OUT
                                    ---                                        ---
   EVAPOTRANSPIRATION =        1.3396D+08     EVAPOTRANSPIRATION =        1403824.46
           STREAMFLOW =        3.5650D+07             STREAMFLOW =         457521.16
     GW BOUNDARY FLOW =                         GW BOUNDARY FLOW =                  

   INFLOWS - OUTFLOWS =        4.2614D+07     INFLOWS - OUTFLOWS =       -1861345.62
             --------                                   --------

 TOTAL STORAGE CHANGE =        3.9859D+07         STORAGE CHANGE =       -1870834.33
       --------------                             --------------
         LAND SURFACE =        3.7468D+07           LAND SURFACE =        -472696.79
            SOIL ZONE =        1.4431D+07              SOIL ZONE =        -520240.77
     UNSATURATED ZONE =          87673.57       UNSATURATED ZONE =          23796.01
       SATURATED ZONE =       -1.5264D+07         SATURATED ZONE =        -180159.41
                LAKES =        3136570.51                  LAKES =        -721533.38

 OVERALL BUDGET ERROR =        2755243.33           BUDGET ERROR =           9488.71


  PERCENT DISCREPANCY =              1.31    PERCENT DISCREPANCY =              0.51



1
 SUMMARY VOLUMETRIC BUDGET FOR GSFLOW 
 DATE: 01 20 1981              CUMULATIVE TIME STEP:     112
 MODFLOW STRESS PERIOD      1     CURRENT TIME STEP:     112     ITERATIONS:      12

 -----------------------------------------------------------------------------------

   CUMULATIVE VOLUMES               L**3   RATES FOR THIS TIME STEP           L**3/T
   ------------------                      ------------------------

                                     IN                                         IN
                                     --                                         --
        PRECIPITATION =        2.2423D+08          PRECIPITATION =        6001392.59
           STREAMFLOW =                               STREAMFLOW =                  
     GW BOUNDARY FLOW =                         GW BOUNDARY FLOW =                  


                                    OUT                                        OUT
                                    ---                                        ---
   EVAPOTRANSPIRATION =        1.4498D+08     EVAPOTRANSPIRATION =        1812032.77
           STREAMFLOW =        3.9241D+07             STREAMFLOW =         485521.72
     GW BOUNDARY FLOW =                         GW BOUNDARY FLOW =                  

   INFLOWS - OUTFLOWS =        4.0007D+07     INFLOWS - OUTFLOWS =        3703838.10
             --------                                   --------

 TOTAL STORAGE CHANGE =        3.7026D+07         STORAGE CHANGE =        3594716.37
       --------------                             --------------
         LAND SURFACE =        3.4618D+07           LAND SURFACE =         551847.56
            SOIL ZONE =        1.5991D+07              SOIL ZONE =        1363859.56
     UNSATURATED ZONE =         522367.85       UNSATURATED ZONE =         135779.00
       SATURATED ZONE =       -1.5904D+07         SATURATED ZONE =          85718.62
                LAKES =        1799939.34                  LAKES =        1457511.62

 OVERALL BUDGET ERROR =        2981124.71           BUDGET ERROR =         109121.73


  PERCENT DISCREPANCY =              1.34    PERCENT DISCREPANCY =              1.83



1
 SUMMARY VOLUMETRIC BUDGET FOR GSFLOW 
 DATE: 01 27 1981              CUMULATIVE TIME STEP:     119
 MODFLOW STRESS PERIOD      1     CURRENT TIME STEP:     119     ITERATIONS:      15

 -----------------------------------------------------------------------------------

   CUMULATIVE VOLUMES               L**3   RATES FOR THIS TIME STEP           L**3/T
   ------------------                      ------------------------

                                     IN                                         IN
                                     --                                         --
        PRECIPITATION =        3.3525D+08          PRECIPITATION =        6.0014D+07
           STREAMFLOW =                               STREAMFLOW =                  
     GW BOUNDARY FLOW =                         GW BOUNDARY FLOW =                  


                                    OUT                                        OUT
                                    ---                                        ---
   EVAPOTRANSPIRATION =        1.5407D+08     EVAPOTRANSPIRATION =         663125.29
           STREAMFLOW =        4.1752D+07             STREAMFLOW =         345811.31
     GW BOUNDARY FLOW =                         GW BOUNDARY FLOW =                  

   INFLOWS - OUTFLOWS =        1.3943D+08     INFLOWS - OUTFLOWS =        5.9005D+07
             --------                                   --------

 TOTAL STORAGE CHANGE =        1.3631D+08         STORAGE CHANGE =        5.8966D+07
       --------------                             --------------
         LAND SURFACE =        1.0380D+08           LAND SURFACE =        4.0704D+07
            SOIL ZONE =        1.8074D+07              SOIL ZONE =        1754160.07
     UNSATURATED ZONE =        1201235.11       UNSATURATED ZONE =         120399.09
       SATURATED ZONE =       -1.6481D+07         SATURATED ZONE =          78805.80
                LAKES =        2.9715D+07                  LAKES =        1.6308D+07

 OVERALL BUDGET ERROR =        3123989.53           BUDGET ERROR =          38881.38


  PERCENT DISCREPANCY =              0.94    PERCENT DISCREPANCY =              0.06



1
 SUMMARY VOLUMETRIC BUDGET FOR GSFLOW 
 DATE: 02 03 1981              CUMULATIVE TIME STEP:     126
 MODFLOW STRESS PERIOD      1     CURRENT TIME STEP:     126     ITERATIONS:      21

 -----------------------------------------------------------------------------------

   CUMULATIVE VOLUMES               L**3   RATES FOR THIS TIME STEP           L**3/T
   ------------------                      ------------------------

                                     IN                                         IN
                                     --                                         --
        PRECIPITATION =        4.0137D+08          PRECIPITATION =                  
           STREAMFLOW =                               STREAMFLOW =                  
     GW BOUNDARY FLOW =                         GW BOUNDARY FLOW =                  


                                    OUT                                        OUT
                                    ---                                        ---
   EVAPOTRANSPIRATION =        1.5769D+08     EVAPOTRANSPIRATION =         897749.75
           STREAMFLOW =        4.4232D+07             STREAMFLOW =         354891.78
     GW BOUNDARY FLOW =                         GW BOUNDARY FLOW =                  

   INFLOWS - OUTFLOWS =        1.9944D+08     INFLOWS - OUTFLOWS =       -1252641.53
             --------                                   --------

 TOTAL STORAGE CHANGE =        1.9654D+08         STORAGE CHANGE =       -1277460.62
       --------------                             --------------
         LAND SURFACE =        1.5000D+08           LAND SURFACE =        -514046.87
            SOIL ZONE =        1.7075D+07              SOIL ZONE =        -141383.37
     UNSATURATED ZONE =        1624569.22       UNSATURATED ZONE =          30791.21
       SATURATED ZONE =       -1.7719D+07         SATURATED ZONE =        -175666.81
                LAKES =        4.5560D+07                  LAKES =        -477154.78

 OVERALL BUDGET ERROR =        2906301.85           BUDGET ERROR =          24819.09


  PERCENT DISCREPANCY =              0.73    PERCENT DISCREPANCY =              1.96



1
 SUMMARY VOLUMETRIC BUDGET FOR GSFLOW 
 DATE: 02 10 1981              CUMULATIVE TIME STEP:     133
 MODFLOW STRESS PERIOD      1     CURRENT TIME STEP:     133     ITERATIONS:       3

 -----------------------------------------------------------------------------------

   CUMULATIVE VOLUMES               L**3   RATES FOR THIS TIME STEP           L**3/T
   ------------------                      ------------------------

                                     IN                                         IN
                                     --                                         --
        PRECIPITATION =        4.1375D+08          PRECIPITATION =        3095932.43
           STREAMFLOW =                               STREAMFLOW =                  
     GW BOUNDARY FLOW =                         GW BOUNDARY FLOW =                  


                                    OUT                                        OUT
                                    ---                                        ---
   EVAPOTRANSPIRATION =        1.6309D+08     EVAPOTRANSPIRATION =         577879.06
           STREAMFLOW =        4.6626D+07             STREAMFLOW =         340304.91
     GW BOUNDARY FLOW =                         GW BOUNDARY FLOW =                  

   INFLOWS - OUTFLOWS =        2.0403D+08     INFLOWS - OUTFLOWS =        2177748.46
             --------                                   --------

 TOTAL STORAGE CHANGE =        2.0099D+08         STORAGE CHANGE =        2149986.02
       --------------                             --------------
         LAND SURFACE =        1.5542D+08           LAND SURFACE =        1647975.59
            SOIL ZONE =        1.6988D+07              SOIL ZONE =         193620.61
     UNSATURATED ZONE =        1701793.62       UNSATURATED ZONE =           8209.01
       SATURATED ZONE =       -1.8826D+07         SATURATED ZONE =        -150562.53
                LAKES =        4.5711D+07                  LAKES =         450743.34

 OVERALL BUDGET ERROR =        3043754.18           BUDGET ERROR =          27762.44


  PERCENT DISCREPANCY =              0.74    PERCENT DISCREPANCY =              0.90



1
 SUMMARY VOLUMETRIC BUDGET FOR GSFLOW 
 DATE: 02 17 1981              CUMULATIVE TIME STEP:     140
 MODFLOW STRESS PERIOD      1     CURRENT TIME STEP:     140     ITERATIONS:      32

 -----------------------------------------------------------------------------------

   CUMULATIVE VOLUMES               L**3   RATES FOR THIS TIME STEP           L**3/T
   ------------------                      ------------------------

                                     IN                                         IN
                                     --                                         --
        PRECIPITATION =        4.6328D+08          PRECIPITATION =                  
           STREAMFLOW =                               STREAMFLOW =                  
     GW BOUNDARY FLOW =                         GW BOUNDARY FLOW =                  


                                    OUT                                        OUT
                                    ---                                        ---
   EVAPOTRANSPIRATION =        1.7438D+08     EVAPOTRANSPIRATION =        2612618.77
           STREAMFLOW =        4.8976D+07             STREAMFLOW =         285389.16
     GW BOUNDARY FLOW =                         GW BOUNDARY FLOW =                  

   INFLOWS - OUTFLOWS =        2.3992D+08     INFLOWS - OUTFLOWS =       -2898007.93
             --------                                   --------

 TOTAL STORAGE CHANGE =        2.3625D+08         STORAGE CHANGE =       -2957890.24
       --------------                             --------------
         LAND SURFACE =        1.6983D+08           LAND SURFACE =       -2316327.40
            SOIL ZONE =        2.3847D+07              SOIL ZONE =         -56463.08
     UNSATURATED ZONE =        2735783.63       UNSATURATED ZONE =         187345.03
       SATURATED ZONE =       -1.8916D+07         SATURATED ZONE =        -127188.04
                LAKES =        5.8754D+07                  LAKES =        -645256.75

 OVERALL BUDGET ERROR =        3668650.28           BUDGET ERROR =          59882.31


  PERCENT DISCREPANCY =              0.80    PERCENT DISCREPANCY =              2.05



1
 SUMMARY VOLUMETRIC BUDGET FOR GSFLOW 
 DATE: 02 24 1981              CUMULATIVE TIME STEP:     147
 MODFLOW STRESS PERIOD      1     CURRENT TIME STEP:     147     ITERATIONS:      15

 -----------------------------------------------------------------------------------

   CUMULATIVE VOLUMES               L**3   RATES FOR THIS TIME STEP           L**3/T
   ------------------                      ------------------------

                                     IN                                         IN
                                     --                                         --
        PRECIPITATION =        4.8805D+08          PRECIPITATION =        1.8576D+07
           STREAMFLOW =                               STREAMFLOW =                  
     GW BOUNDARY FLOW =                         GW BOUNDARY FLOW =                  


                                    OUT                                        OUT
                                    ---                                        ---
   EVAPOTRANSPIRATION =        1.8775D+08     EVAPOTRANSPIRATION =        1355371.06
           STREAMFLOW =        5.0060D+07             STREAMFLOW =         143123.89
     GW BOUNDARY FLOW =                         GW BOUNDARY FLOW =                  

   INFLOWS - OUTFLOWS =        2.5024D+08     INFLOWS - OUTFLOWS =        1.7077D+07
             --------                                   --------

 TOTAL STORAGE CHANGE =        2.4610D+08         STORAGE CHANGE =        1.7033D+07
       --------------                             --------------
         LAND SURFACE =        1.6962D+08           LAND SURFACE =        1.0824D+07
            SOIL ZONE =        2.6076D+07              SOIL ZONE =         470165.34
     UNSATURATED ZONE =        1558546.86       UNSATURATED ZONE =         343296.65
       SATURATED ZONE =       -1.7097D+07         SATURATED ZONE =          48485.11
                LAKES =        6.5947D+07                  LAKES =        5347794.50

 OVERALL BUDGET ERROR =        4137025.77           BUDGET ERROR =          43618.48


  PERCENT DISCREPANCY =              0.85    PERCENT DISCREPANCY =              0.24



1
 SUMMARY VOLUMETRIC BUDGET FOR GSFLOW 
 DATE: 03 03 1981              CUMULATIVE TIME STEP:     154
 MODFLOW STRESS PERIOD      1     CURRENT TIME STEP:     154     ITERATIONS:      16

 -----------------------------------------------------------------------------------

   CUMULATIVE VOLUMES               L**3   RATES FOR THIS TIME STEP           L**3/T
   ------------------                      ------------------------

                                     IN                                         IN
                                     --                                         --
        PRECIPITATION =        5.0056D+08          PRECIPITATION =                  
           STREAMFLOW =                               STREAMFLOW =                  
     GW BOUNDARY FLOW =                         GW BOUNDARY FLOW =                  


                                    OUT                                        OUT
                                    ---                                        ---
   EVAPOTRANSPIRATION =        1.9627D+08     EVAPOTRANSPIRATION =        2160937.57
           STREAMFLOW =        5.1106D+07             STREAMFLOW =         161574.77
     GW BOUNDARY FLOW =                         GW BOUNDARY FLOW =                  

   INFLOWS - OUTFLOWS =        2.5318D+08     INFLOWS - OUTFLOWS =       -2322512.34
             --------                                   --------

 TOTAL STORAGE CHANGE =        2.4887D+08         STORAGE CHANGE =       -2344874.44
       --------------                             --------------
         LAND SURFACE =        1.7232D+08           LAND SURFACE =       -1112915.94
            SOIL ZONE =        2.4192D+07              SOIL ZONE =        -375975.39
     UNSATURATED ZONE =        2526200.89       UNSATURATED ZONE =          66137.97
       SATURATED ZONE =       -1.8334D+07         SATURATED ZONE =        -179092.58
                LAKES =        6.8169D+07                  LAKES =        -743028.50

 OVERALL BUDGET ERROR =        4310435.91           BUDGET ERROR =          22362.10


  PERCENT DISCREPANCY =              0.86    PERCENT DISCREPANCY =              0.96



1
 SUMMARY VOLUMETRIC BUDGET FOR GSFLOW 
 DATE: 03 10 1981              CUMULATIVE TIME STEP:     161
 MODFLOW STRESS PERIOD      1     CURRENT TIME STEP:     161     ITERATIONS:      42

 -----------------------------------------------------------------------------------

   CUMULATIVE VOLUMES               L**3   RATES FOR THIS TIME STEP           L**3/T
   ------------------                      ------------------------

                                     IN                                         IN
                                     --                                         --
        PRECIPITATION =        5.0378D+08          PRECIPITATION =        3221591.34
           STREAMFLOW =                               STREAMFLOW =                  
     GW BOUNDARY FLOW =                         GW BOUNDARY FLOW =                  


                                    OUT                                        OUT
                                    ---                                        ---
   EVAPOTRANSPIRATION =        2.1335D+08     EVAPOTRANSPIRATION =        1911129.04
           STREAMFLOW =        5.2250D+07             STREAMFLOW =         163871.41
     GW BOUNDARY FLOW =                         GW BOUNDARY FLOW =                  

   INFLOWS - OUTFLOWS =        2.3819D+08     INFLOWS - OUTFLOWS =        1146590.89
             --------                                   --------

 TOTAL STORAGE CHANGE =        2.3367D+08         STORAGE CHANGE =        1114088.34
       --------------                             --------------
         LAND SURFACE =        1.5960D+08           LAND SURFACE =       -1847354.55
            SOIL ZONE =        2.4732D+07              SOIL ZONE =        1270283.63
     UNSATURATED ZONE =        2988846.62       UNSATURATED ZONE =         158861.78
       SATURATED ZONE =       -1.8856D+07         SATURATED ZONE =         135849.59
                LAKES =        6.5200D+07                  LAKES =        1396447.88

 OVERALL BUDGET ERROR =        4520525.42           BUDGET ERROR =          32502.55


  PERCENT DISCREPANCY =              0.90    PERCENT DISCREPANCY =              1.01



1
 SUMMARY VOLUMETRIC BUDGET FOR GSFLOW 
 DATE: 03 17 1981              CUMULATIVE TIME STEP:     168
 MODFLOW STRESS PERIOD      1     CURRENT TIME STEP:     168     ITERATIONS:      33

 -----------------------------------------------------------------------------------

   CUMULATIVE VOLUMES               L**3   RATES FOR THIS TIME STEP           L**3/T
   ------------------                      ------------------------

                                     IN                                         IN
                                     --                                         --
        PRECIPITATION =        5.1345D+08          PRECIPITATION =        3221591.34
           STREAMFLOW =                               STREAMFLOW =                  
     GW BOUNDARY FLOW =                         GW BOUNDARY FLOW =                  


                                    OUT                                        OUT
                                    ---                                        ---
   EVAPOTRANSPIRATION =        2.2791D+08     EVAPOTRANSPIRATION =        1041892.53
           STREAMFLOW =        5.3446D+07             STREAMFLOW =         174561.34
     GW BOUNDARY FLOW =                         GW BOUNDARY FLOW =                  

   INFLOWS - OUTFLOWS =        2.3209D+08     INFLOWS - OUTFLOWS =        2005137.46
             --------                                   --------

 TOTAL STORAGE CHANGE =        2.2743D+08         STORAGE CHANGE =        1980277.61
       --------------                             --------------
         LAND SURFACE =        1.5550D+08           LAND SURFACE =        1505005.36
            SOIL ZONE =        2.3801D+07              SOIL ZONE =          25482.06
     UNSATURATED ZONE =        3582403.74       UNSATURATED ZONE =        -103492.72
       SATURATED ZONE =       -1.9576D+07         SATURATED ZONE =           1919.72
                LAKES =        6.4119D+07                  LAKES =         551363.19

 OVERALL BUDGET ERROR =        4665396.66           BUDGET ERROR =          24859.85


  PERCENT DISCREPANCY =              0.91    PERCENT DISCREPANCY =              0.77



1
 SUMMARY VOLUMETRIC BUDGET FOR GSFLOW 
 DATE: 03 24 1981              CUMULATIVE TIME STEP:     175
 MODFLOW STRESS PERIOD      1     CURRENT TIME STEP:     175     ITERATIONS:      21

 -----------------------------------------------------------------------------------

   CUMULATIVE VOLUMES               L**3   RATES FOR THIS TIME STEP           L**3/T
   ------------------                      ------------------------

                                     IN                                         IN
                                     --                                         --
        PRECIPITATION =        5.7144D+08          PRECIPITATION =        6443182.67
           STREAMFLOW =                               STREAMFLOW =                  
     GW BOUNDARY FLOW =                         GW BOUNDARY FLOW =                  


                                    OUT                                        OUT
                                    ---                                        ---
   EVAPOTRANSPIRATION =        2.4182D+08     EVAPOTRANSPIRATION =        1710107.75
           STREAMFLOW =        5.4582D+07             STREAMFLOW =         164599.16
     GW BOUNDARY FLOW =                         GW BOUNDARY FLOW =                  

   INFLOWS - OUTFLOWS =        2.7504D+08     INFLOWS - OUTFLOWS =        4568475.77
             --------                                   --------

 TOTAL STORAGE CHANGE =        2.7012D+08         STORAGE CHANGE =        4530343.04
       --------------                             --------------
         LAND SURFACE =        1.8290D+08           LAND SURFACE =        1419532.73
            SOIL ZONE =        2.6095D+07              SOIL ZONE =         785264.92
     UNSATURATED ZONE =        4502911.52       UNSATURATED ZONE =         179240.36
       SATURATED ZONE =       -2.0015D+07         SATURATED ZONE =          90685.28
                LAKES =        7.6637D+07                  LAKES =        2055619.75

 OVERALL BUDGET ERROR =        4919030.65           BUDGET ERROR =          38132.72


  PERCENT DISCREPANCY =              0.86    PERCENT DISCREPANCY =              0.59



1
 SUMMARY VOLUMETRIC BUDGET FOR GSFLOW 
 DATE: 03 31 1981              CUMULATIVE TIME STEP:     182
 MODFLOW STRESS PERIOD      1     CURRENT TIME STEP:     182     ITERATIONS:      28

 -----------------------------------------------------------------------------------

   CUMULATIVE VOLUMES               L**3   RATES FOR THIS TIME STEP           L**3/T
   ------------------                      ------------------------

                                     IN                                         IN
                                     --                                         --
        PRECIPITATION =        6.3587D+08          PRECIPITATION =        6443182.67
           STREAMFLOW =                               STREAMFLOW =                  
     GW BOUNDARY FLOW =                         GW BOUNDARY FLOW =                  


                                    OUT                                        OUT
                                    ---                                        ---
   EVAPOTRANSPIRATION =        2.5632D+08     EVAPOTRANSPIRATION =        1135835.15
           STREAMFLOW =        5.5754D+07             STREAMFLOW =         154067.20
     GW BOUNDARY FLOW =                         GW BOUNDARY FLOW =                  

   INFLOWS - OUTFLOWS =        3.2380D+08     INFLOWS - OUTFLOWS =        5153280.32
             --------                                   --------

 TOTAL STORAGE CHANGE =        3.1888D+08         STORAGE CHANGE =        5114237.00
       --------------                             --------------
         LAND SURFACE =        2.0791D+08           LAND SURFACE =        2593093.39
            SOIL ZONE =        2.7738D+07              SOIL ZONE =         491058.63
     UNSATURATED ZONE =        1373789.40       UNSATURATED ZONE =         179733.99
       SATURATED ZONE =       -1.6477D+07         SATURATED ZONE =         -32598.39
                LAKES =        9.8330D+07                  LAKES =        1882949.38

 OVERALL BUDGET ERROR =        4917436.22           BUDGET ERROR =          39043.32


  PERCENT DISCREPANCY =              0.78    PERCENT DISCREPANCY =              0.61



1
 SUMMARY VOLUMETRIC BUDGET FOR GSFLOW 
 DATE: 04 07 1981              CUMULATIVE TIME STEP:     189
 MODFLOW STRESS PERIOD      1     CURRENT TIME STEP:     189     ITERATIONS:      49

 -----------------------------------------------------------------------------------

   CUMULATIVE VOLUMES               L**3   RATES FOR THIS TIME STEP           L**3/T
   ------------------                      ------------------------

                                     IN                                         IN
                                     --                                         --
        PRECIPITATION =        6.5328D+08          PRECIPITATION =                  
           STREAMFLOW =                               STREAMFLOW =                  
     GW BOUNDARY FLOW =                         GW BOUNDARY FLOW =                  


                                    OUT                                        OUT
                                    ---                                        ---
   EVAPOTRANSPIRATION =        2.7945D+08     EVAPOTRANSPIRATION =        4247209.83
           STREAMFLOW =        5.6884D+07             STREAMFLOW =         203682.78
     GW BOUNDARY FLOW =                         GW BOUNDARY FLOW =                  

   INFLOWS - OUTFLOWS =        3.1695D+08     INFLOWS - OUTFLOWS =       -4450892.61
             --------                                   --------

 TOTAL STORAGE CHANGE =        3.1175D+08         STORAGE CHANGE =       -4477586.83
       --------------                             --------------
         LAND SURFACE =        1.8629D+08           LAND SURFACE =       -6808850.16
            SOIL ZONE =        2.8275D+07              SOIL ZONE =         -13029.72
     UNSATURATED ZONE =        3312705.72       UNSATURATED ZONE =         340116.45
       SATURATED ZONE =       -1.5186D+07         SATURATED ZONE =         293772.09
                LAKES =        1.0906D+08                  LAKES =        1710404.50

 OVERALL BUDGET ERROR =        5193679.69           BUDGET ERROR =          26694.22


  PERCENT DISCREPANCY =              0.80    PERCENT DISCREPANCY =              0.60



1
 SUMMARY VOLUMETRIC BUDGET FOR GSFLOW 
 DATE: 04 14 1981              CUMULATIVE TIME STEP:     196
 MODFLOW STRESS PERIOD      1     CURRENT TIME STEP:     196     ITERATIONS:      37

 -----------------------------------------------------------------------------------

   CUMULATIVE VOLUMES               L**3   RATES FOR THIS TIME STEP           L**3/T
   ------------------                      ------------------------

                                     IN                                         IN
                                     --                                         --
        PRECIPITATION =        6.5328D+08          PRECIPITATION =                  
           STREAMFLOW =                               STREAMFLOW =                  
     GW BOUNDARY FLOW =                         GW BOUNDARY FLOW =                  


                                    OUT                                        OUT
                                    ---                                        ---
   EVAPOTRANSPIRATION =        3.0927D+08     EVAPOTRANSPIRATION =        5171058.70
           STREAMFLOW =        5.8130D+07             STREAMFLOW =         172000.17
     GW BOUNDARY FLOW =                         GW BOUNDARY FLOW =                  

   INFLOWS - OUTFLOWS =        2.8588D+08     INFLOWS - OUTFLOWS =       -5343058.87
             --------                                   --------

 TOTAL STORAGE CHANGE =        2.8048D+08         STORAGE CHANGE =       -5365813.02
       --------------                             --------------
         LAND SURFACE =        1.4105D+08           LAND SURFACE =       -7353372.32
            SOIL ZONE =        2.3823D+07              SOIL ZONE =        -905528.82
     UNSATURATED ZONE =        5309757.12       UNSATURATED ZONE =         248580.30
       SATURATED ZONE =       -1.3530D+07         SATURATED ZONE =         268804.56
                LAKES =        1.2384D+08                  LAKES =        2375703.25

 OVERALL BUDGET ERROR =        5392883.15           BUDGET ERROR =          22754.15


  PERCENT DISCREPANCY =              0.83    PERCENT DISCREPANCY =              0.42



1
 SUMMARY VOLUMETRIC BUDGET FOR GSFLOW 
 DATE: 04 21 1981              CUMULATIVE TIME STEP:     203
 MODFLOW STRESS PERIOD      1     CURRENT TIME STEP:     203     ITERATIONS:      53

 -----------------------------------------------------------------------------------

   CUMULATIVE VOLUMES               L**3   RATES FOR THIS TIME STEP           L**3/T
   ------------------                      ------------------------

                                     IN                                         IN
                                     --                                         --
        PRECIPITATION =        6.7418D+08          PRECIPITATION =                  
           STREAMFLOW =                               STREAMFLOW =                  
     GW BOUNDARY FLOW =                         GW BOUNDARY FLOW =                  


                                    OUT                                        OUT
                                    ---                                        ---
   EVAPOTRANSPIRATION =        3.3938D+08     EVAPOTRANSPIRATION =        5676950.45
           STREAMFLOW =        5.9345D+07             STREAMFLOW =         169579.17
     GW BOUNDARY FLOW =                         GW BOUNDARY FLOW =                  

   INFLOWS - OUTFLOWS =        2.7546D+08     INFLOWS - OUTFLOWS =       -5846529.62
             --------                                   --------

 TOTAL STORAGE CHANGE =        2.7012D+08         STORAGE CHANGE =       -5850258.82
       --------------                             --------------
         LAND SURFACE =        1.1854D+08           LAND SURFACE =       -3228226.29
            SOIL ZONE =        2.1951D+07              SOIL ZONE =       -2078928.46
     UNSATURATED ZONE =        6411417.89       UNSATURATED ZONE =          91496.62
       SATURATED ZONE =       -1.3331D+07         SATURATED ZONE =         -37219.88
                LAKES =        1.3655D+08                  LAKES =        -597380.81

 OVERALL BUDGET ERROR =        5342368.67           BUDGET ERROR =           3729.20


  PERCENT DISCREPANCY =              0.80    PERCENT DISCREPANCY =              0.06



1
 SUMMARY VOLUMETRIC BUDGET FOR GSFLOW 
 DATE: 04 28 1981              CUMULATIVE TIME STEP:     210
 MODFLOW STRESS PERIOD      1     CURRENT TIME STEP:     210     ITERATIONS:      47

 -----------------------------------------------------------------------------------

   CUMULATIVE VOLUMES               L**3   RATES FOR THIS TIME STEP           L**3/T
   ------------------                      ------------------------

                                     IN                                         IN
                                     --                                         --
        PRECIPITATION =        6.8114D+08          PRECIPITATION =                  
           STREAMFLOW =                               STREAMFLOW =                  
     GW BOUNDARY FLOW =                         GW BOUNDARY FLOW =                  


                                    OUT                                        OUT
                                    ---                                        ---
   EVAPOTRANSPIRATION =        3.8077D+08     EVAPOTRANSPIRATION =        5632457.84
           STREAMFLOW =        6.0557D+07             STREAMFLOW =         169029.33
     GW BOUNDARY FLOW =                         GW BOUNDARY FLOW =                  

   INFLOWS - OUTFLOWS =        2.3981D+08     INFLOWS - OUTFLOWS =       -5801487.17
             --------                                   --------

 TOTAL STORAGE CHANGE =        2.3445D+08         STORAGE CHANGE =       -5798284.13
       --------------                             --------------
         LAND SURFACE =        9.3061D+07           LAND SURFACE =       -4036144.09
            SOIL ZONE =        1.1922D+07              SOIL ZONE =       -1674099.05
     UNSATURATED ZONE =        6487599.33       UNSATURATED ZONE =         -36622.74
       SATURATED ZONE =       -1.3189D+07         SATURATED ZONE =         113634.47
                LAKES =        1.3617D+08                  LAKES =        -165052.72

 OVERALL BUDGET ERROR =        5365434.92           BUDGET ERROR =          -3203.04


  PERCENT DISCREPANCY =              0.79    PERCENT DISCREPANCY =             -0.06



1
 SUMMARY VOLUMETRIC BUDGET FOR GSFLOW 
 DATE: 05 05 1981              CUMULATIVE TIME STEP:     217
 MODFLOW STRESS PERIOD      1     CURRENT TIME STEP:     217     ITERATIONS:      70

 -----------------------------------------------------------------------------------

   CUMULATIVE VOLUMES               L**3   RATES FOR THIS TIME STEP           L**3/T
   ------------------                      ------------------------

                                     IN                                         IN
                                     --                                         --
        PRECIPITATION =        6.8811D+08          PRECIPITATION =                  
           STREAMFLOW =                               STREAMFLOW =                  
     GW BOUNDARY FLOW =                         GW BOUNDARY FLOW =                  


                                    OUT                                        OUT
                                    ---                                        ---
   EVAPOTRANSPIRATION =        4.1880D+08     EVAPOTRANSPIRATION =        3777903.75
           STREAMFLOW =        6.1775D+07             STREAMFLOW =         173796.00
     GW BOUNDARY FLOW =                         GW BOUNDARY FLOW =                  

   INFLOWS - OUTFLOWS =        2.0754D+08     INFLOWS - OUTFLOWS =       -3951699.75
             --------                                   --------

 TOTAL STORAGE CHANGE =        2.0211D+08         STORAGE CHANGE =       -3956349.40
       --------------                             --------------
         LAND SURFACE =        6.7797D+07           LAND SURFACE =       -2954584.90
            SOIL ZONE =        5252928.94              SOIL ZONE =        -921792.88
     UNSATURATED ZONE =        5121734.06       UNSATURATED ZONE =         -70719.25
       SATURATED ZONE =       -1.2255D+07         SATURATED ZONE =         -12334.19
                LAKES =        1.3620D+08                  LAKES =           3081.83

 OVERALL BUDGET ERROR =        5422015.10           BUDGET ERROR =           4649.66


  PERCENT DISCREPANCY =              0.79    PERCENT DISCREPANCY =              0.12



1
 SUMMARY VOLUMETRIC BUDGET FOR GSFLOW 
 DATE: 05 12 1981              CUMULATIVE TIME STEP:     224
 MODFLOW STRESS PERIOD      1     CURRENT TIME STEP:     224     ITERATIONS:      62

 -----------------------------------------------------------------------------------

   CUMULATIVE VOLUMES               L**3   RATES FOR THIS TIME STEP           L**3/T
   ------------------                      ------------------------

                                     IN                                         IN
                                     --                                         --
        PRECIPITATION =        6.8811D+08          PRECIPITATION =                  
           STREAMFLOW =                               STREAMFLOW =                  
     GW BOUNDARY FLOW =                         GW BOUNDARY FLOW =                  


                                    OUT                                        OUT
                                    ---                                        ---
   EVAPOTRANSPIRATION =        4.4716D+08     EVAPOTRANSPIRATION =        4487841.34
           STREAMFLOW =        6.2972D+07             STREAMFLOW =         168853.17
     GW BOUNDARY FLOW =                         GW BOUNDARY FLOW =                  

   INFLOWS - OUTFLOWS =        1.7797D+08     INFLOWS - OUTFLOWS =       -4656694.51
             --------                                   --------

 TOTAL STORAGE CHANGE =        1.7255D+08         STORAGE CHANGE =       -4655433.27
       --------------                             --------------
         LAND SURFACE =        4.4652D+07           LAND SURFACE =       -3401591.14
            SOIL ZONE =       -1386855.48              SOIL ZONE =        -952955.46
     UNSATURATED ZONE =        3086759.91       UNSATURATED ZONE =        -839089.29
       SATURATED ZONE =       -1.1001D+07         SATURATED ZONE =         540148.00
                LAKES =        1.3720D+08                  LAKES =          -1945.38

 OVERALL BUDGET ERROR =        5419741.12           BUDGET ERROR =          -1261.23


  PERCENT DISCREPANCY =              0.79    PERCENT DISCREPANCY =             -0.03



1
 SUMMARY VOLUMETRIC BUDGET FOR GSFLOW 
 DATE: 05 19 1981              CUMULATIVE TIME STEP:     231
 MODFLOW STRESS PERIOD      1     CURRENT TIME STEP:     231     ITERATIONS:      43

 -----------------------------------------------------------------------------------

   CUMULATIVE VOLUMES               L**3   RATES FOR THIS TIME STEP           L**3/T
   ------------------                      ------------------------

                                     IN                                         IN
                                     --                                         --
        PRECIPITATION =        7.4671D+08          PRECIPITATION =        3447112.78
           STREAMFLOW =                               STREAMFLOW =                  
     GW BOUNDARY FLOW =                         GW BOUNDARY FLOW =                  


                                    OUT                                        OUT
                                    ---                                        ---
   EVAPOTRANSPIRATION =        4.6526D+08     EVAPOTRANSPIRATION =        1758777.03
           STREAMFLOW =        6.4162D+07             STREAMFLOW =         172527.06
     GW BOUNDARY FLOW =                         GW BOUNDARY FLOW =                  

   INFLOWS - OUTFLOWS =        2.1729D+08     INFLOWS - OUTFLOWS =        1515808.68
             --------                                   --------

 TOTAL STORAGE CHANGE =        2.1222D+08         STORAGE CHANGE =        1518718.75
       --------------                             --------------
         LAND SURFACE =        4.8302D+07           LAND SURFACE =       -3469349.29
            SOIL ZONE =        1.0091D+07              SOIL ZONE =        2136513.18
     UNSATURATED ZONE =        2907414.27       UNSATURATED ZONE =         -16488.98
       SATURATED ZONE =       -1.0535D+07         SATURATED ZONE =          67458.83
                LAKES =        1.6145D+08                  LAKES =        2800585.00

 OVERALL BUDGET ERROR =        5073418.26           BUDGET ERROR =          -2910.06


  PERCENT DISCREPANCY =              0.68    PERCENT DISCREPANCY =             -0.08



1
 SUMMARY VOLUMETRIC BUDGET FOR GSFLOW 
 DATE: 05 26 1981              CUMULATIVE TIME STEP:     238
 MODFLOW STRESS PERIOD      1     CURRENT TIME STEP:     238     ITERATIONS:      16

 -----------------------------------------------------------------------------------

   CUMULATIVE VOLUMES               L**3   RATES FOR THIS TIME STEP           L**3/T
   ------------------                      ------------------------

                                     IN                                         IN
                                     --                                         --
        PRECIPITATION =        7.7429D+08          PRECIPITATION =        1.7236D+07
           STREAMFLOW =                               STREAMFLOW =                  
     GW BOUNDARY FLOW =                         GW BOUNDARY FLOW =                  


                                    OUT                                        OUT
                                    ---                                        ---
   EVAPOTRANSPIRATION =        4.9678D+08     EVAPOTRANSPIRATION =        2648208.31
           STREAMFLOW =        6.5363D+07             STREAMFLOW =         180466.05
     GW BOUNDARY FLOW =                         GW BOUNDARY FLOW =                  

   INFLOWS - OUTFLOWS =        2.1215D+08     INFLOWS - OUTFLOWS =        1.4407D+07
             --------                                   --------

 TOTAL STORAGE CHANGE =        2.0657D+08         STORAGE CHANGE =        1.4236D+07
       --------------                             --------------
         LAND SURFACE =        3.1890D+07           LAND SURFACE =        -275022.79
            SOIL ZONE =        8659326.40              SOIL ZONE =        4715817.13
     UNSATURATED ZONE =        2742744.84       UNSATURATED ZONE =          12758.87
       SATURATED ZONE =       -1.0095D+07         SATURATED ZONE =         558370.56
                LAKES =        1.7337D+08                  LAKES =        9224080.00

 OVERALL BUDGET ERROR =        5580976.82           BUDGET ERROR =         170885.52


  PERCENT DISCREPANCY =              0.72    PERCENT DISCREPANCY =              1.00



1
 SUMMARY VOLUMETRIC BUDGET FOR GSFLOW 
 DATE: 06 02 1981              CUMULATIVE TIME STEP:     245
 MODFLOW STRESS PERIOD      1     CURRENT TIME STEP:     245     ITERATIONS:      65

 -----------------------------------------------------------------------------------

   CUMULATIVE VOLUMES               L**3   RATES FOR THIS TIME STEP           L**3/T
   ------------------                      ------------------------

                                     IN                                         IN
                                     --                                         --
        PRECIPITATION =        7.7429D+08          PRECIPITATION =                  
           STREAMFLOW =                               STREAMFLOW =                  
     GW BOUNDARY FLOW =                         GW BOUNDARY FLOW =                  


                                    OUT                                        OUT
                                    ---                                        ---
   EVAPOTRANSPIRATION =        5.3770D+08     EVAPOTRANSPIRATION =        5802170.11
           STREAMFLOW =        6.6583D+07             STREAMFLOW =         178725.95
     GW BOUNDARY FLOW =                         GW BOUNDARY FLOW =                  

   INFLOWS - OUTFLOWS =        1.7000D+08     INFLOWS - OUTFLOWS =       -5980896.07
             --------                                   --------

 TOTAL STORAGE CHANGE =        1.6440D+08         STORAGE CHANGE =       -5983548.47
       --------------                             --------------
         LAND SURFACE =        1.9162D+07           LAND SURFACE =       -1524432.06
            SOIL ZONE =       -7613769.99              SOIL ZONE =       -1966472.37
     UNSATURATED ZONE =       -1849995.55       UNSATURATED ZONE =        -125462.63
       SATURATED ZONE =       -8517723.56         SATURATED ZONE =        -221755.91
                LAKES =        1.6322D+08                  LAKES =       -2145425.50

 OVERALL BUDGET ERROR =        5603229.17           BUDGET ERROR =           2652.40


  PERCENT DISCREPANCY =              0.73    PERCENT DISCREPANCY =              0.04



1
 SUMMARY VOLUMETRIC BUDGET FOR GSFLOW 
 DATE: 06 09 1981              CUMULATIVE TIME STEP:     252
 MODFLOW STRESS PERIOD      1     CURRENT TIME STEP:     252     ITERATIONS:      49

 -----------------------------------------------------------------------------------

   CUMULATIVE VOLUMES               L**3   RATES FOR THIS TIME STEP           L**3/T
   ------------------                      ------------------------

                                     IN                                         IN
                                     --                                         --
        PRECIPITATION =        7.7752D+08          PRECIPITATION =                  
           STREAMFLOW =                               STREAMFLOW =                  
     GW BOUNDARY FLOW =                         GW BOUNDARY FLOW =                  


                                    OUT                                        OUT
                                    ---                                        ---
   EVAPOTRANSPIRATION =        5.7452D+08     EVAPOTRANSPIRATION =        5412642.75
           STREAMFLOW =        6.7827D+07             STREAMFLOW =         203133.83
     GW BOUNDARY FLOW =                         GW BOUNDARY FLOW =                  

   INFLOWS - OUTFLOWS =        1.3517D+08     INFLOWS - OUTFLOWS =       -5615776.58
             --------                                   --------

 TOTAL STORAGE CHANGE =        1.2958D+08         STORAGE CHANGE =       -5612127.73
       --------------                             --------------
         LAND SURFACE =        9796535.79           LAND SURFACE =        -964195.82
            SOIL ZONE =       -1.8503D+07              SOIL ZONE =       -1819615.76
     UNSATURATED ZONE =       -2678005.48       UNSATURATED ZONE =        -125783.29
       SATURATED ZONE =       -9750077.69         SATURATED ZONE =        -221418.61
                LAKES =        1.5072D+08                  LAKES =       -2481114.25

 OVERALL BUDGET ERROR =        5593426.82           BUDGET ERROR =          -3648.84


  PERCENT DISCREPANCY =              0.72    PERCENT DISCREPANCY =             -0.06



1
 SUMMARY VOLUMETRIC BUDGET FOR GSFLOW 
 DATE: 06 16 1981              CUMULATIVE TIME STEP:     259
 MODFLOW STRESS PERIOD      1     CURRENT TIME STEP:     259     ITERATIONS:      35

 -----------------------------------------------------------------------------------

   CUMULATIVE VOLUMES               L**3   RATES FOR THIS TIME STEP           L**3/T
   ------------------                      ------------------------

                                     IN                                         IN
                                     --                                         --
        PRECIPITATION =        7.7752D+08          PRECIPITATION =                  
           STREAMFLOW =                               STREAMFLOW =                  
     GW BOUNDARY FLOW =                         GW BOUNDARY FLOW =                  


                                    OUT                                        OUT
                                    ---                                        ---
   EVAPOTRANSPIRATION =        6.0221D+08     EVAPOTRANSPIRATION =        4684329.81
           STREAMFLOW =        7.0935D+07             STREAMFLOW =         702199.94
     GW BOUNDARY FLOW =                         GW BOUNDARY FLOW =                  

   INFLOWS - OUTFLOWS =        1.0437D+08     INFLOWS - OUTFLOWS =       -5386529.74
             --------                                   --------

 TOTAL STORAGE CHANGE =        9.8752D+07         STORAGE CHANGE =       -5385038.30
[...]
       SATURATED ZONE =       -5.3547D+07         SATURATED ZONE =        -198794.48
                LAKES =        7.2277D+08                  LAKES =       -4134013.75

 OVERALL BUDGET ERROR =        2.9945D+07           BUDGET ERROR =           9997.31


  PERCENT DISCREPANCY =              0.55    PERCENT DISCREPANCY =              0.22



1
 SUMMARY VOLUMETRIC BUDGET FOR GSFLOW 
 DATE: 11 29 1983              CUMULATIVE TIME STEP:    1155
 MODFLOW STRESS PERIOD      1     CURRENT TIME STEP:    1155     ITERATIONS:       3

 -----------------------------------------------------------------------------------

   CUMULATIVE VOLUMES               L**3   RATES FOR THIS TIME STEP           L**3/T
   ------------------                      ------------------------

                                     IN                                         IN
                                     --                                         --
        PRECIPITATION =        5.5463D+09          PRECIPITATION =        6461469.31
           STREAMFLOW =                               STREAMFLOW =                  
     GW BOUNDARY FLOW =                         GW BOUNDARY FLOW =                  


                                    OUT                                        OUT
                                    ---                                        ---
   EVAPOTRANSPIRATION =        2.8959D+09     EVAPOTRANSPIRATION =         356396.68
           STREAMFLOW =        1.6168D+09             STREAMFLOW =        4966705.50
     GW BOUNDARY FLOW =                         GW BOUNDARY FLOW =                  

   INFLOWS - OUTFLOWS =        1.0335D+09     INFLOWS - OUTFLOWS =        1138367.13
             --------                                   --------

 TOTAL STORAGE CHANGE =        1.0035D+09         STORAGE CHANGE =        1124277.31
       --------------                             --------------
         LAND SURFACE =        3.3540D+08           LAND SURFACE =        4606953.51
            SOIL ZONE =        5177804.22              SOIL ZONE =         -71160.34
     UNSATURATED ZONE =        1054472.59       UNSATURATED ZONE =          27639.12
       SATURATED ZONE =       -5.4769D+07         SATURATED ZONE =        -173062.48
                LAKES =        7.1661D+08                  LAKES =       -3266092.50

 OVERALL BUDGET ERROR =        3.0078D+07           BUDGET ERROR =          14089.81


  PERCENT DISCREPANCY =              0.54    PERCENT DISCREPANCY =              0.22



1
 SUMMARY VOLUMETRIC BUDGET FOR GSFLOW 
 DATE: 12 06 1983              CUMULATIVE TIME STEP:    1162
 MODFLOW STRESS PERIOD      1     CURRENT TIME STEP:    1162     ITERATIONS:       3

 -----------------------------------------------------------------------------------

   CUMULATIVE VOLUMES               L**3   RATES FOR THIS TIME STEP           L**3/T
   ------------------                      ------------------------

                                     IN                                         IN
                                     --                                         --
        PRECIPITATION =        5.6038D+09          PRECIPITATION =        3198161.89
           STREAMFLOW =                               STREAMFLOW =                  
     GW BOUNDARY FLOW =                         GW BOUNDARY FLOW =                  


                                    OUT                                        OUT
                                    ---                                        ---
   EVAPOTRANSPIRATION =        2.8996D+09     EVAPOTRANSPIRATION =         185765.04
           STREAMFLOW =        1.6522D+09             STREAMFLOW =        5064639.00
     GW BOUNDARY FLOW =                         GW BOUNDARY FLOW =                  

   INFLOWS - OUTFLOWS =        1.0520D+09     INFLOWS - OUTFLOWS =       -2052242.14
             --------                                   --------

 TOTAL STORAGE CHANGE =        1.0217D+09         STORAGE CHANGE =       -2079715.38
       --------------                             --------------
         LAND SURFACE =        3.7376D+08           LAND SURFACE =        2296320.51
            SOIL ZONE =        5747801.47              SOIL ZONE =        -130648.18
     UNSATURATED ZONE =        1335934.65       UNSATURATED ZONE =          28390.81
       SATURATED ZONE =       -5.5796D+07         SATURATED ZONE =        -165701.52
                LAKES =        6.9667D+08                  LAKES =       -4108077.00

 OVERALL BUDGET ERROR =        3.0279D+07           BUDGET ERROR =          27473.23


  PERCENT DISCREPANCY =              0.54    PERCENT DISCREPANCY =              0.52



1
 SUMMARY VOLUMETRIC BUDGET FOR GSFLOW 
 DATE: 12 13 1983              CUMULATIVE TIME STEP:    1169
 MODFLOW STRESS PERIOD      1     CURRENT TIME STEP:    1169     ITERATIONS:      12

 -----------------------------------------------------------------------------------

   CUMULATIVE VOLUMES               L**3   RATES FOR THIS TIME STEP           L**3/T
   ------------------                      ------------------------

                                     IN                                         IN
                                     --                                         --
        PRECIPITATION =        5.6998D+09          PRECIPITATION =        9594484.95
           STREAMFLOW =                               STREAMFLOW =                  
     GW BOUNDARY FLOW =                         GW BOUNDARY FLOW =                  


                                    OUT                                        OUT
                                    ---                                        ---
   EVAPOTRANSPIRATION =        2.9033D+09     EVAPOTRANSPIRATION =         226515.25
           STREAMFLOW =        1.6892D+09             STREAMFLOW =        5260512.00
     GW BOUNDARY FLOW =                         GW BOUNDARY FLOW =                  

   INFLOWS - OUTFLOWS =        1.1072D+09     INFLOWS - OUTFLOWS =        4107457.70
             --------                                   --------

 TOTAL STORAGE CHANGE =        1.0767D+09         STORAGE CHANGE =        4083201.78
       --------------                             --------------
         LAND SURFACE =        4.3778D+08           LAND SURFACE =        7019560.16
            SOIL ZONE =        6989921.51              SOIL ZONE =        -183996.67
     UNSATURATED ZONE =        1778983.64       UNSATURATED ZONE =          43878.41
       SATURATED ZONE =       -5.6487D+07         SATURATED ZONE =        -178719.12
                LAKES =        6.8659D+08                  LAKES =       -2617521.00

 OVERALL BUDGET ERROR =        3.0582D+07           BUDGET ERROR =          24255.92


  PERCENT DISCREPANCY =              0.54    PERCENT DISCREPANCY =              0.25



1
 SUMMARY VOLUMETRIC BUDGET FOR GSFLOW 
 DATE: 12 20 1983              CUMULATIVE TIME STEP:    1176
 MODFLOW STRESS PERIOD      1     CURRENT TIME STEP:    1176     ITERATIONS:       3

 -----------------------------------------------------------------------------------

   CUMULATIVE VOLUMES               L**3   RATES FOR THIS TIME STEP           L**3/T
   ------------------                      ------------------------

                                     IN                                         IN
                                     --                                         --
        PRECIPITATION =        5.7158D+09          PRECIPITATION =                  
           STREAMFLOW =                               STREAMFLOW =                  
     GW BOUNDARY FLOW =                         GW BOUNDARY FLOW =                  


                                    OUT                                        OUT
                                    ---                                        ---
   EVAPOTRANSPIRATION =        2.9112D+09     EVAPOTRANSPIRATION =         347080.84
           STREAMFLOW =        1.7277D+09             STREAMFLOW =        5578472.50
     GW BOUNDARY FLOW =                         GW BOUNDARY FLOW =                  

   INFLOWS - OUTFLOWS =        1.0769D+09     INFLOWS - OUTFLOWS =       -5925553.34
             --------                                   --------

 TOTAL STORAGE CHANGE =        1.0459D+09         STORAGE CHANGE =       -5956694.74
       --------------                             --------------
         LAND SURFACE =        4.4092D+08           LAND SURFACE =        -229898.36
            SOIL ZONE =        7727533.23              SOIL ZONE =        -180204.08
     UNSATURATED ZONE =        2284583.97       UNSATURATED ZONE =          43770.64
       SATURATED ZONE =       -5.7486D+07         SATURATED ZONE =        -180030.44
                LAKES =        6.5249D+08                  LAKES =       -5410332.50

 OVERALL BUDGET ERROR =        3.0952D+07           BUDGET ERROR =          31141.40


  PERCENT DISCREPANCY =              0.54    PERCENT DISCREPANCY =              0.52



1
 SUMMARY VOLUMETRIC BUDGET FOR GSFLOW 
 DATE: 12 27 1983              CUMULATIVE TIME STEP:    1183
 MODFLOW STRESS PERIOD      1     CURRENT TIME STEP:    1183     ITERATIONS:       8

 -----------------------------------------------------------------------------------

   CUMULATIVE VOLUMES               L**3   RATES FOR THIS TIME STEP           L**3/T
   ------------------                      ------------------------

                                     IN                                         IN
                                     --                                         --
        PRECIPITATION =        5.8917D+09          PRECIPITATION =        9594484.95
           STREAMFLOW =                               STREAMFLOW =                  
     GW BOUNDARY FLOW =                         GW BOUNDARY FLOW =                  


                                    OUT                                        OUT
                                    ---                                        ---
   EVAPOTRANSPIRATION =        2.9134D+09     EVAPOTRANSPIRATION =         397050.47
           STREAMFLOW =        1.7667D+09             STREAMFLOW =        5677393.00
     GW BOUNDARY FLOW =                         GW BOUNDARY FLOW =                  

   INFLOWS - OUTFLOWS =        1.2116D+09     INFLOWS - OUTFLOWS =        3520041.48
             --------                                   --------

 TOTAL STORAGE CHANGE =        1.1802D+09         STORAGE CHANGE =        3468212.90
       --------------                             --------------
         LAND SURFACE =        5.6571D+08           LAND SURFACE =        5841371.54
            SOIL ZONE =        8460804.32              SOIL ZONE =         228148.61
     UNSATURATED ZONE =        2548736.35       UNSATURATED ZONE =         100170.66
       SATURATED ZONE =       -5.8085D+07         SATURATED ZONE =         -88404.91
                LAKES =        6.6155D+08                  LAKES =       -2613073.00

 OVERALL BUDGET ERROR =        3.1369D+07           BUDGET ERROR =          51828.58


  PERCENT DISCREPANCY =              0.53    PERCENT DISCREPANCY =              0.54



1
 SUMMARY VOLUMETRIC BUDGET FOR GSFLOW 
 DATE: 01 03 1984              CUMULATIVE TIME STEP:    1190
 MODFLOW STRESS PERIOD      1     CURRENT TIME STEP:    1190     ITERATIONS:       4

 -----------------------------------------------------------------------------------

   CUMULATIVE VOLUMES               L**3   RATES FOR THIS TIME STEP           L**3/T
   ------------------                      ------------------------

                                     IN                                         IN
                                     --                                         --
        PRECIPITATION =        5.9235D+09          PRECIPITATION =                  
           STREAMFLOW =                               STREAMFLOW =                  
     GW BOUNDARY FLOW =                         GW BOUNDARY FLOW =                  


                                    OUT                                        OUT
                                    ---                                        ---
   EVAPOTRANSPIRATION =        2.9198D+09     EVAPOTRANSPIRATION =        1448225.72
           STREAMFLOW =        1.8063D+09             STREAMFLOW =        5603065.50
     GW BOUNDARY FLOW =                         GW BOUNDARY FLOW =                  

   INFLOWS - OUTFLOWS =        1.1974D+09     INFLOWS - OUTFLOWS =       -7051291.22
             --------                                   --------

 TOTAL STORAGE CHANGE =        1.1657D+09         STORAGE CHANGE =       -7071855.48
       --------------                             --------------
         LAND SURFACE =        5.7870D+08           LAND SURFACE =        -976138.39
            SOIL ZONE =        9171581.57              SOIL ZONE =        -188450.94
     UNSATURATED ZONE =        3123742.46       UNSATURATED ZONE =          43230.15
       SATURATED ZONE =       -5.8962D+07         SATURATED ZONE =        -191003.30
                LAKES =        6.3365D+08                  LAKES =       -5759493.00

 OVERALL BUDGET ERROR =        3.1682D+07           BUDGET ERROR =          20564.26


  PERCENT DISCREPANCY =              0.54    PERCENT DISCREPANCY =              0.29



1
 SUMMARY VOLUMETRIC BUDGET FOR GSFLOW 
 DATE: 01 10 1984              CUMULATIVE TIME STEP:    1197
 MODFLOW STRESS PERIOD      1     CURRENT TIME STEP:    1197     ITERATIONS:       8

 -----------------------------------------------------------------------------------

   CUMULATIVE VOLUMES               L**3   RATES FOR THIS TIME STEP           L**3/T
   ------------------                      ------------------------

                                     IN                                         IN
                                     --                                         --
        PRECIPITATION =        5.9235D+09          PRECIPITATION =                  
           STREAMFLOW =                               STREAMFLOW =                  
     GW BOUNDARY FLOW =                         GW BOUNDARY FLOW =                  


                                    OUT                                        OUT
                                    ---                                        ---
   EVAPOTRANSPIRATION =        2.9322D+09     EVAPOTRANSPIRATION =        1728205.43
           STREAMFLOW =        1.8438D+09             STREAMFLOW =        5235933.50
     GW BOUNDARY FLOW =                         GW BOUNDARY FLOW =                  

   INFLOWS - OUTFLOWS =        1.1475D+09     INFLOWS - OUTFLOWS =       -6964138.93
             --------                                   --------

 TOTAL STORAGE CHANGE =        1.1156D+09         STORAGE CHANGE =       -7001585.81
       --------------                             --------------
         LAND SURFACE =        5.6643D+08           LAND SURFACE =       -2016428.22
            SOIL ZONE =        1.0293D+07              SOIL ZONE =         296163.36
     UNSATURATED ZONE =        3464247.43       UNSATURATED ZONE =          76399.30
       SATURATED ZONE =       -5.9724D+07         SATURATED ZONE =         -70341.75
                LAKES =        5.9514D+08                  LAKES =       -5287378.50

 OVERALL BUDGET ERROR =        3.1893D+07           BUDGET ERROR =          37446.88


  PERCENT DISCREPANCY =              0.54    PERCENT DISCREPANCY =              0.54



1
 SUMMARY VOLUMETRIC BUDGET FOR GSFLOW 
 DATE: 01 17 1984              CUMULATIVE TIME STEP:    1204
 MODFLOW STRESS PERIOD      1     CURRENT TIME STEP:    1204     ITERATIONS:       3

 -----------------------------------------------------------------------------------

   CUMULATIVE VOLUMES               L**3   RATES FOR THIS TIME STEP           L**3/T
   ------------------                      ------------------------

                                     IN                                         IN
                                     --                                         --
        PRECIPITATION =        5.9475D+09          PRECIPITATION =                  
           STREAMFLOW =                               STREAMFLOW =                  
     GW BOUNDARY FLOW =                         GW BOUNDARY FLOW =                  


                                    OUT                                        OUT
                                    ---                                        ---
   EVAPOTRANSPIRATION =        2.9359D+09     EVAPOTRANSPIRATION =         514487.54
           STREAMFLOW =        1.8795D+09             STREAMFLOW =        5015584.50
     GW BOUNDARY FLOW =                         GW BOUNDARY FLOW =                  

   INFLOWS - OUTFLOWS =        1.1320D+09     INFLOWS - OUTFLOWS =       -5530072.04
             --------                                   --------

 TOTAL STORAGE CHANGE =        1.1001D+09         STORAGE CHANGE =       -5549924.74
       --------------                             --------------
         LAND SURFACE =        5.8186D+08           LAND SURFACE =        -369940.34
            SOIL ZONE =        9288040.97              SOIL ZONE =        -101240.74
     UNSATURATED ZONE =        3550622.77       UNSATURATED ZONE =          -4625.03
       SATURATED ZONE =       -6.0770D+07         SATURATED ZONE =        -153710.64
                LAKES =        5.6615D+08                  LAKES =       -4920408.00

 OVERALL BUDGET ERROR =        3.1946D+07           BUDGET ERROR =          19852.70


  PERCENT DISCREPANCY =              0.54    PERCENT DISCREPANCY =              0.36



1
 SUMMARY VOLUMETRIC BUDGET FOR GSFLOW 
 DATE: 01 24 1984              CUMULATIVE TIME STEP:    1211
 MODFLOW STRESS PERIOD      1     CURRENT TIME STEP:    1211     ITERATIONS:       9

 -----------------------------------------------------------------------------------

   CUMULATIVE VOLUMES               L**3   RATES FOR THIS TIME STEP           L**3/T
   ------------------                      ------------------------

                                     IN                                         IN
                                     --                                         --
        PRECIPITATION =        5.9535D+09          PRECIPITATION =                  
           STREAMFLOW =                               STREAMFLOW =                  
     GW BOUNDARY FLOW =                         GW BOUNDARY FLOW =                  


                                    OUT                                        OUT
                                    ---                                        ---
   EVAPOTRANSPIRATION =        2.9414D+09     EVAPOTRANSPIRATION =        1047877.41
           STREAMFLOW =        1.9143D+09             STREAMFLOW =        4917690.00
     GW BOUNDARY FLOW =                         GW BOUNDARY FLOW =                  

   INFLOWS - OUTFLOWS =        1.0978D+09     INFLOWS - OUTFLOWS =       -5965567.41
             --------                                   --------

 TOTAL STORAGE CHANGE =        1.0658D+09         STORAGE CHANGE =       -5966415.50
       --------------                             --------------
         LAND SURFACE =        5.8317D+08           LAND SURFACE =        -583964.56
            SOIL ZONE =        8751105.41              SOIL ZONE =         -67370.31
     UNSATURATED ZONE =        3346244.11       UNSATURATED ZONE =         -41826.91
       SATURATED ZONE =       -6.1754D+07         SATURATED ZONE =        -136818.22
                LAKES =        5.3230D+08                  LAKES =       -5136435.50

 OVERALL BUDGET ERROR =        3.2015D+07           BUDGET ERROR =            848.09


  PERCENT DISCREPANCY =              0.54    PERCENT DISCREPANCY =              0.01



