1
 SUMMARY VOLUMETRIC BUDGET FOR GSFLOW 
 DATE: 10 07 1980              CUMULATIVE TIME STEP:       7
 MODFLOW STRESS PERIOD      1     CURRENT TIME STEP:       7     ITERATIONS:      14

 -----------------------------------------------------------------------------------

   CUMULATIVE VOLUMES               L**3   RATES FOR THIS TIME STEP           L**3/T
   ------------------                      ------------------------

                                     IN                                         IN
                                     --                                         --
        PRECIPITATION =                            PRECIPITATION =                  
           STREAMFLOW =                               STREAMFLOW =                  
     GW BOUNDARY FLOW =                         GW BOUNDARY FLOW =                  


                                    OUT                                        OUT
                                    ---                                        ---
   EVAPOTRANSPIRATION =        1.5511D+07     EVAPOTRANSPIRATION =        1478881.36
           STREAMFLOW =        1672058.77             STREAMFLOW =         183556.67
     GW BOUNDARY FLOW =                         GW BOUNDARY FLOW =                  

   INFLOWS - OUTFLOWS =       -1.7183D+07     INFLOWS - OUTFLOWS =       -1662438.03
             --------                                   --------

 TOTAL STORAGE CHANGE =       -1.7157D+07         STORAGE CHANGE =       -1664381.50
       --------------                             --------------
         LAND SURFACE =                             LAND SURFACE =                  
            SOIL ZONE =       -5762960.39              SOIL ZONE =        -270465.11
     UNSATURATED ZONE =       -1007862.74       UNSATURATED ZONE =         -54922.61
       SATURATED ZONE =       -1300626.94         SATURATED ZONE =        -269871.91
                LAKES =       -9085744.75                  LAKES =       -1069121.88

 OVERALL BUDGET ERROR =         -25985.08           BUDGET ERROR =           1943.46


  PERCENT DISCREPANCY =             -0.15    PERCENT DISCREPANCY =              0.12



1
 SUMMARY VOLUMETRIC BUDGET FOR GSFLOW 
 DATE: 10 14 1980              CUMULATIVE TIME STEP:      14
 MODFLOW STRESS PERIOD      1     CURRENT TIME STEP:      14     ITERATIONS:       3

 -----------------------------------------------------------------------------------

   CUMULATIVE VOLUMES               L**3   RATES FOR THIS TIME STEP           L**3/T
   ------------------                      ------------------------

                                     IN                                         IN
                                     --                                         --
        PRECIPITATION =        1.3442D+07          PRECIPITATION =        6721104.51
           STREAMFLOW =                               STREAMFLOW =                  
     GW BOUNDARY FLOW =                         GW BOUNDARY FLOW =                  


                                    OUT                                        OUT
                                    ---                                        ---
   EVAPOTRANSPIRATION =        2.3219D+07     EVAPOTRANSPIRATION =         507117.51
           STREAMFLOW =        2279257.54             STREAMFLOW =          34825.50
     GW BOUNDARY FLOW =                         GW BOUNDARY FLOW =                  

   INFLOWS - OUTFLOWS =       -1.2056D+07     INFLOWS - OUTFLOWS =        6179161.50
             --------                                   --------

 TOTAL STORAGE CHANGE =       -1.2123D+07         STORAGE CHANGE =        6136181.43
       --------------                             --------------
         LAND SURFACE =        2292332.54           LAND SURFACE =        1396244.76
            SOIL ZONE =         153102.08              SOIL ZONE =        3131355.28
     UNSATURATED ZONE =       -1444973.64       UNSATURATED ZONE =         -57230.40
       SATURATED ZONE =       -2729817.95         SATURATED ZONE =        -121188.97
                LAKES =       -1.0394D+07                  LAKES =        1787000.75

 OVERALL BUDGET ERROR =          67161.95           BUDGET ERROR =          42980.07


  PERCENT DISCREPANCY =              0.26    PERCENT DISCREPANCY =              0.64



1
 SUMMARY VOLUMETRIC BUDGET FOR GSFLOW 
 DATE: 10 21 1980              CUMULATIVE TIME STEP:      21
 MODFLOW STRESS PERIOD      1     CURRENT TIME STEP:      21     ITERATIONS:       3

 -----------------------------------------------------------------------------------

   CUMULATIVE VOLUMES               L**3   RATES FOR THIS TIME STEP           L**3/T
   ------------------                      ------------------------

                                     IN                                         IN
                                     --                                         --
        PRECIPITATION =        1.6803D+07          PRECIPITATION =                  
           STREAMFLOW =                               STREAMFLOW =                  
     GW BOUNDARY FLOW =                         GW BOUNDARY FLOW =                  


                                    OUT                                        OUT
                                    ---                                        ---
   EVAPOTRANSPIRATION =        3.0233D+07     EVAPOTRANSPIRATION =        1467066.03
           STREAMFLOW =        3039696.79             STREAMFLOW =         364392.81
     GW BOUNDARY FLOW =                         GW BOUNDARY FLOW =                  

   INFLOWS - OUTFLOWS =       -1.6470D+07     INFLOWS - OUTFLOWS =       -1831458.84
             --------                                   --------

 TOTAL STORAGE CHANGE =       -1.6548D+07         STORAGE CHANGE =       -1827792.51
       --------------                             --------------
         LAND SURFACE =         450933.11           LAND SURFACE =        -157820.81
            SOIL ZONE =        -328840.47              SOIL ZONE =        -679592.62
     UNSATURATED ZONE =       -1881069.97       UNSATURATED ZONE =         -58658.82
       SATURATED ZONE =       -3772084.53         SATURATED ZONE =        -158365.70
                LAKES =       -1.1017D+07                  LAKES =        -773354.56

 OVERALL BUDGET ERROR =          77808.86           BUDGET ERROR =          -3666.32


  PERCENT DISCREPANCY =              0.23    PERCENT DISCREPANCY =             -0.20



1
 SUMMARY VOLUMETRIC BUDGET FOR GSFLOW 
 DATE: 10 28 1980              CUMULATIVE TIME STEP:      28
 MODFLOW STRESS PERIOD      1     CURRENT TIME STEP:      28     ITERATIONS:       4

 -----------------------------------------------------------------------------------

   CUMULATIVE VOLUMES               L**3   RATES FOR THIS TIME STEP           L**3/T
   ------------------                      ------------------------

                                     IN                                         IN
                                     --                                         --
        PRECIPITATION =        4.0327D+07          PRECIPITATION =                  
           STREAMFLOW =                               STREAMFLOW =                  
     GW BOUNDARY FLOW =                         GW BOUNDARY FLOW =                  


                                    OUT                                        OUT
                                    ---                                        ---
   EVAPOTRANSPIRATION =        3.7279D+07     EVAPOTRANSPIRATION =         461412.22
           STREAMFLOW =        5483164.94             STREAMFLOW =         342843.84
     GW BOUNDARY FLOW =                         GW BOUNDARY FLOW =                  

   INFLOWS - OUTFLOWS =       -2435793.75     INFLOWS - OUTFLOWS =        -804256.06
             --------                                   --------

 TOTAL STORAGE CHANGE =       -3038369.42         STORAGE CHANGE =        -768153.44
       --------------                             --------------
         LAND SURFACE =        4658064.73           LAND SURFACE =        -166816.91
            SOIL ZONE =        7112146.08              SOIL ZONE =        -271758.66
     UNSATURATED ZONE =       -2174529.20       UNSATURATED ZONE =         -31871.42
       SATURATED ZONE =       -4523410.56         SATURATED ZONE =        -126021.11
                LAKES =       -8110640.46                  LAKES =        -171685.34

 OVERALL BUDGET ERROR =         602575.67           BUDGET ERROR =         -36102.62

  ***WARNING, FLUX RATES OFF > 3%

  PERCENT DISCREPANCY =              1.40    PERCENT DISCREPANCY =             -4.59



1
 SUMMARY VOLUMETRIC BUDGET FOR GSFLOW 
 DATE: 11 04 1980              CUMULATIVE TIME STEP:      35
 MODFLOW STRESS PERIOD      1     CURRENT TIME STEP:      35     ITERATIONS:       7

 -----------------------------------------------------------------------------------

   CUMULATIVE VOLUMES               L**3   RATES FOR THIS TIME STEP           L**3/T
   ------------------                      ------------------------

                                     IN                                         IN
                                     --                                         --
        PRECIPITATION =        5.0408D+07          PRECIPITATION =                  
           STREAMFLOW =                               STREAMFLOW =                  
     GW BOUNDARY FLOW =                         GW BOUNDARY FLOW =                  


                                    OUT                                        OUT
                                    ---                                        ---
   EVAPOTRANSPIRATION =        5.2114D+07     EVAPOTRANSPIRATION =        2794238.95
           STREAMFLOW =        7932063.29             STREAMFLOW =         350030.38
     GW BOUNDARY FLOW =                         GW BOUNDARY FLOW =                  

   INFLOWS - OUTFLOWS =       -9637606.87     INFLOWS - OUTFLOWS =       -3144269.32
             --------                                   --------

 TOTAL STORAGE CHANGE =       -1.0582D+07         STORAGE CHANGE =       -3148286.51
       --------------                             --------------
         LAND SURFACE =         206598.96           LAND SURFACE =         -41867.41
            SOIL ZONE =        3878732.32              SOIL ZONE =       -1780658.55
     UNSATURATED ZONE =       -2137064.38       UNSATURATED ZONE =         -46057.98
       SATURATED ZONE =       -5062823.56         SATURATED ZONE =        -247448.83
                LAKES =       -7467844.28                  LAKES =       -1032253.75

 OVERALL BUDGET ERROR =         944794.07           BUDGET ERROR =           4017.19


  PERCENT DISCREPANCY =              1.56    PERCENT DISCREPANCY =              0.13



1
 SUMMARY VOLUMETRIC BUDGET FOR GSFLOW 
 DATE: 11 11 1980              CUMULATIVE TIME STEP:      42
 MODFLOW STRESS PERIOD      1     CURRENT TIME STEP:      42     ITERATIONS:       5

 -----------------------------------------------------------------------------------

   CUMULATIVE VOLUMES               L**3   RATES FOR THIS TIME STEP           L**3/T
   ------------------                      ------------------------

                                     IN                                         IN
                                     --                                         --
        PRECIPITATION =        7.9485D+07          PRECIPITATION =        3230734.65
           STREAMFLOW =                               STREAMFLOW =                  
     GW BOUNDARY FLOW =                         GW BOUNDARY FLOW =                  


                                    OUT                                        OUT
                                    ---                                        ---
   EVAPOTRANSPIRATION =        6.9952D+07     EVAPOTRANSPIRATION =        1696113.60
           STREAMFLOW =        9809691.39             STREAMFLOW =         250092.14
     GW BOUNDARY FLOW =                         GW BOUNDARY FLOW =                  

   INFLOWS - OUTFLOWS =        -276751.70     INFLOWS - OUTFLOWS =        1284528.91
             --------                                   --------

 TOTAL STORAGE CHANGE =       -1490560.58         STORAGE CHANGE =        1150923.57
       --------------                             --------------
         LAND SURFACE =        3266569.49           LAND SURFACE =        -110998.46
            SOIL ZONE =        8677939.69              SOIL ZONE =         699145.97
     UNSATURATED ZONE =       -2168565.28       UNSATURATED ZONE =          39575.41
       SATURATED ZONE =       -5933125.89         SATURATED ZONE =         -35744.34
                LAKES =       -5333378.59                  LAKES =         558945.00

 OVERALL BUDGET ERROR =        1213808.89           BUDGET ERROR =         133605.34

  ***WARNING, FLUX RATES OFF > 3%

  PERCENT DISCREPANCY =              1.51    PERCENT DISCREPANCY =              4.22



1
 SUMMARY VOLUMETRIC BUDGET FOR GSFLOW 
 DATE: 11 18 1980              CUMULATIVE TIME STEP:      49
 MODFLOW STRESS PERIOD      1     CURRENT TIME STEP:      49     ITERATIONS:       3

 -----------------------------------------------------------------------------------

   CUMULATIVE VOLUMES               L**3   RATES FOR THIS TIME STEP           L**3/T
   ------------------                      ------------------------

                                     IN                                         IN
                                     --                                         --
        PRECIPITATION =        8.5946D+07          PRECIPITATION =                  
           STREAMFLOW =                               STREAMFLOW =                  
     GW BOUNDARY FLOW =                         GW BOUNDARY FLOW =                  


                                    OUT                                        OUT
                                    ---                                        ---
   EVAPOTRANSPIRATION =        7.6244D+07     EVAPOTRANSPIRATION =        1510955.20
           STREAMFLOW =        1.1638D+07             STREAMFLOW =         312770.31
     GW BOUNDARY FLOW =                         GW BOUNDARY FLOW =                  

   INFLOWS - OUTFLOWS =       -1935860.48     INFLOWS - OUTFLOWS =       -1823725.52
             --------                                   --------

 TOTAL STORAGE CHANGE =       -2886734.47         STORAGE CHANGE =       -1767003.61
       --------------                             --------------
         LAND SURFACE =        3785521.17           LAND SURFACE =        -428824.73
            SOIL ZONE =        8057500.31              SOIL ZONE =        -668178.82
     UNSATURATED ZONE =       -2095848.87       UNSATURATED ZONE =          19793.60
       SATURATED ZONE =       -7168117.82         SATURATED ZONE =        -170623.81
                LAKES =       -5465789.26                  LAKES =        -519169.84

 OVERALL BUDGET ERROR =         950874.00           BUDGET ERROR =         -56721.91

  ***WARNING, FLUX RATES OFF > 3%

  PERCENT DISCREPANCY =              1.08    PERCENT DISCREPANCY =             -3.16



1
 SUMMARY VOLUMETRIC BUDGET FOR GSFLOW 
 DATE: 11 25 1980              CUMULATIVE TIME STEP:      56
 MODFLOW STRESS PERIOD      1     CURRENT TIME STEP:      56     ITERATIONS:       3

 -----------------------------------------------------------------------------------

   CUMULATIVE VOLUMES               L**3   RATES FOR THIS TIME STEP           L**3/T
   ------------------                      ------------------------

                                     IN                                         IN
                                     --                                         --
        PRECIPITATION =        8.9177D+07          PRECIPITATION =                  
           STREAMFLOW =                               STREAMFLOW =                  
     GW BOUNDARY FLOW =                         GW BOUNDARY FLOW =                  


                                    OUT                                        OUT
                                    ---                                        ---
   EVAPOTRANSPIRATION =        8.3093D+07     EVAPOTRANSPIRATION =         272927.27
           STREAMFLOW =        1.4055D+07             STREAMFLOW =         437097.81
     GW BOUNDARY FLOW =                         GW BOUNDARY FLOW =                  

   INFLOWS - OUTFLOWS =       -7970611.73     INFLOWS - OUTFLOWS =        -710025.08
             --------                                   --------

 TOTAL STORAGE CHANGE =       -8988163.57         STORAGE CHANGE =        -728536.10
       --------------                             --------------
         LAND SURFACE =        3623166.05           LAND SURFACE =         -24347.90
            SOIL ZONE =        6058243.36              SOIL ZONE =        -183623.38
     UNSATURATED ZONE =       -2108552.67       UNSATURATED ZONE =         -17509.19
       SATURATED ZONE =       -8405989.24         SATURATED ZONE =        -182877.28
                LAKES =       -8155031.07                  LAKES =        -320178.34

 OVERALL BUDGET ERROR =        1017551.84           BUDGET ERROR =          18511.01


  PERCENT DISCREPANCY =              1.04    PERCENT DISCREPANCY =              2.57



1
 SUMMARY VOLUMETRIC BUDGET FOR GSFLOW 
 DATE: 12 02 1980              CUMULATIVE TIME STEP:      63
 MODFLOW STRESS PERIOD      1     CURRENT TIME STEP:      63     ITERATIONS:       4

 -----------------------------------------------------------------------------------

   CUMULATIVE VOLUMES               L**3   RATES FOR THIS TIME STEP           L**3/T
   ------------------                      ------------------------

                                     IN                                         IN
                                     --                                         --
        PRECIPITATION =        1.0846D+08          PRECIPITATION =        3198161.89
           STREAMFLOW =                               STREAMFLOW =                  
     GW BOUNDARY FLOW =                         GW BOUNDARY FLOW =                  


                                    OUT                                        OUT
                                    ---                                        ---
   EVAPOTRANSPIRATION =        9.0641D+07     EVAPOTRANSPIRATION =        1276583.94
           STREAMFLOW =        1.7318D+07             STREAMFLOW =         437214.94
     GW BOUNDARY FLOW =                         GW BOUNDARY FLOW =                  

   INFLOWS - OUTFLOWS =         504714.70     INFLOWS - OUTFLOWS =        1484363.02
             --------                                   --------

 TOTAL STORAGE CHANGE =        -984177.19         STORAGE CHANGE =        1310696.77
       --------------                             --------------
         LAND SURFACE =        6315725.60           LAND SURFACE =       -1022199.63
            SOIL ZONE =        9942857.04              SOIL ZONE =        1753656.14
     UNSATURATED ZONE =       -1959823.01       UNSATURATED ZONE =          56595.56
       SATURATED ZONE =       -9139219.10         SATURATED ZONE =         -42005.17
                LAKES =       -6143717.73                  LAKES =         564649.88

 OVERALL BUDGET ERROR =        1488891.89           BUDGET ERROR =         173666.25

  ***WARNING, FLUX RATES OFF > 3%

  PERCENT DISCREPANCY =              1.37    PERCENT DISCREPANCY =              5.58



1
 SUMMARY VOLUMETRIC BUDGET FOR GSFLOW 
 DATE: 12 09 1980              CUMULATIVE TIME STEP:      70
 MODFLOW STRESS PERIOD      1     CURRENT TIME STEP:      70     ITERATIONS:       3

 -----------------------------------------------------------------------------------

   CUMULATIVE VOLUMES               L**3   RATES FOR THIS TIME STEP           L**3/T
   ------------------                      ------------------------

                                     IN                                         IN
                                     --                                         --
        PRECIPITATION =        1.7882D+08          PRECIPITATION =                  
           STREAMFLOW =                               STREAMFLOW =                  
     GW BOUNDARY FLOW =                         GW BOUNDARY FLOW =                  


                                    OUT                                        OUT
                                    ---                                        ---
   EVAPOTRANSPIRATION =        9.2972D+07     EVAPOTRANSPIRATION =         386685.87
           STREAMFLOW =        2.0282D+07             STREAMFLOW =         420980.56
     GW BOUNDARY FLOW =                         GW BOUNDARY FLOW =                  

   INFLOWS - OUTFLOWS =        6.5569D+07     INFLOWS - OUTFLOWS =        -807666.43
             --------                                   --------

 TOTAL STORAGE CHANGE =        6.3768D+07         STORAGE CHANGE =        -820841.12
       --------------                             --------------
         LAND SURFACE =        5.0168D+07           LAND SURFACE =        -246649.42
            SOIL ZONE =        1.3107D+07              SOIL ZONE =        -140595.63
     UNSATURATED ZONE =       -1523919.25       UNSATURATED ZONE =          40026.37
       SATURATED ZONE =       -1.0110D+07         SATURATED ZONE =        -207500.75
                LAKES =        1.2127D+07                  LAKES =        -266121.69

 OVERALL BUDGET ERROR =        1801264.61           BUDGET ERROR =          13174.69


  PERCENT DISCREPANCY =              1.01    PERCENT DISCREPANCY =              1.62



1
 SUMMARY VOLUMETRIC BUDGET FOR GSFLOW 
 DATE: 12 16 1980              CUMULATIVE TIME STEP:      77
 MODFLOW STRESS PERIOD      1     CURRENT TIME STEP:      77     ITERATIONS:       3

 -----------------------------------------------------------------------------------

   CUMULATIVE VOLUMES               L**3   RATES FOR THIS TIME STEP           L**3/T
   ------------------                      ------------------------

                                     IN                                         IN
                                     --                                         --
        PRECIPITATION =        1.7882D+08          PRECIPITATION =                  
           STREAMFLOW =                               STREAMFLOW =                  
     GW BOUNDARY FLOW =                         GW BOUNDARY FLOW =                  


                                    OUT                                        OUT
                                    ---                                        ---
   EVAPOTRANSPIRATION =        9.9445D+07     EVAPOTRANSPIRATION =        1457720.55
           STREAMFLOW =        2.3263D+07             STREAMFLOW =         430698.91
     GW BOUNDARY FLOW =                         GW BOUNDARY FLOW =                  

   INFLOWS - OUTFLOWS =        5.6115D+07     INFLOWS - OUTFLOWS =       -1888419.46
             --------                                   --------

 TOTAL STORAGE CHANGE =        5.4120D+07         STORAGE CHANGE =       -1922365.79
       --------------                             --------------
         LAND SURFACE =        4.5744D+07           LAND SURFACE =       -1259208.96
            SOIL ZONE =        1.2796D+07              SOIL ZONE =         237886.88
     UNSATURATED ZONE =       -1377837.14       UNSATURATED ZONE =          20128.61
       SATURATED ZONE =       -1.1441D+07         SATURATED ZONE =        -168649.75
                LAKES =        8399192.88                  LAKES =        -752522.56

 OVERALL BUDGET ERROR =        1995437.17           BUDGET ERROR =          33946.33


  PERCENT DISCREPANCY =              1.12    PERCENT DISCREPANCY =              1.78



1
 SUMMARY VOLUMETRIC BUDGET FOR GSFLOW 
 DATE: 12 23 1980              CUMULATIVE TIME STEP:      84
 MODFLOW STRESS PERIOD      1     CURRENT TIME STEP:      84     ITERATIONS:       3

 -----------------------------------------------------------------------------------

   CUMULATIVE VOLUMES               L**3   RATES FOR THIS TIME STEP           L**3/T
   ------------------                      ------------------------

                                     IN                                         IN
                                     --                                         --
        PRECIPITATION =        1.8522D+08          PRECIPITATION =        3198161.89
           STREAMFLOW =                               STREAMFLOW =                  
     GW BOUNDARY FLOW =                         GW BOUNDARY FLOW =                  


                                    OUT                                        OUT
                                    ---                                        ---
   EVAPOTRANSPIRATION =        1.0782D+08     EVAPOTRANSPIRATION =        1096960.74
           STREAMFLOW =        2.6316D+07             STREAMFLOW =         443565.56
     GW BOUNDARY FLOW =                         GW BOUNDARY FLOW =                  

   INFLOWS - OUTFLOWS =        5.1085D+07     INFLOWS - OUTFLOWS =        1657635.59
             --------                                   --------

 TOTAL STORAGE CHANGE =        4.8787D+07         STORAGE CHANGE =        1496427.72
       --------------                             --------------
         LAND SURFACE =        4.0221D+07           LAND SURFACE =        -367739.35
            SOIL ZONE =        1.5774D+07              SOIL ZONE =        1371162.42
     UNSATURATED ZONE =       -1092824.27       UNSATURATED ZONE =          94422.50
       SATURATED ZONE =       -1.2356D+07         SATURATED ZONE =         -80763.93
                LAKES =        6240564.53                  LAKES =         479346.09

 OVERALL BUDGET ERROR =        2298058.85           BUDGET ERROR =         161207.87

  ***WARNING, FLUX RATES OFF > 3%

  PERCENT DISCREPANCY =              1.25    PERCENT DISCREPANCY =              5.17



1
 SUMMARY VOLUMETRIC BUDGET FOR GSFLOW 
 DATE: 12 30 1980              CUMULATIVE TIME STEP:      91
 MODFLOW STRESS PERIOD      1     CURRENT TIME STEP:      91     ITERATIONS:       4

 -----------------------------------------------------------------------------------

   CUMULATIVE VOLUMES               L**3   RATES FOR THIS TIME STEP           L**3/T
   ------------------                      ------------------------

                                     IN                                         IN
                                     --                                         --
        PRECIPITATION =        1.8522D+08          PRECIPITATION =                  
           STREAMFLOW =                               STREAMFLOW =                  
     GW BOUNDARY FLOW =                         GW BOUNDARY FLOW =                  


                                    OUT                                        OUT
                                    ---                                        ---
   EVAPOTRANSPIRATION =        1.1805D+08     EVAPOTRANSPIRATION =        1240471.40
           STREAMFLOW =        2.9399D+07             STREAMFLOW =         445279.78
     GW BOUNDARY FLOW =                         GW BOUNDARY FLOW =                  

   INFLOWS - OUTFLOWS =        3.7769D+07     INFLOWS - OUTFLOWS =       -1685751.18
             --------                                   --------

 TOTAL STORAGE CHANGE =        3.5253D+07         STORAGE CHANGE =       -1709133.81
       --------------                             --------------
         LAND SURFACE =        3.3989D+07           LAND SURFACE =        -561684.68
            SOIL ZONE =        1.3819D+07              SOIL ZONE =        -403942.48
     UNSATURATED ZONE =        -774729.21       UNSATURATED ZONE =          33879.43
       SATURATED ZONE =       -1.3409D+07         SATURATED ZONE =        -163191.02
                LAKES =        1629039.69                  LAKES =        -614195.06

 OVERALL BUDGET ERROR =        2515957.54           BUDGET ERROR =          23382.63


  PERCENT DISCREPANCY =              1.37    PERCENT DISCREPANCY =              1.38



1
 SUMMARY VOLUMETRIC BUDGET FOR GSFLOW 
 DATE: 01 06 1981              CUMULATIVE TIME STEP:      98
 MODFLOW STRESS PERIOD      1     CURRENT TIME STEP:      98     ITERATIONS:      14

 -----------------------------------------------------------------------------------

   CUMULATIVE VOLUMES               L**3   RATES FOR THIS TIME STEP           L**3/T
   ------------------                      ------------------------

                                     IN                                         IN
                                     --                                         --
        PRECIPITATION =        2.0923D+08          PRECIPITATION =                  
           STREAMFLOW =                               STREAMFLOW =                  
     GW BOUNDARY FLOW =                         GW BOUNDARY FLOW =                  


                                    OUT                                        OUT
                                    ---                                        ---
   EVAPOTRANSPIRATION =        1.2562D+08     EVAPOTRANSPIRATION =        1141256.28
           STREAMFLOW =        3.2519D+07             STREAMFLOW =         445540.84
     GW BOUNDARY FLOW =                         GW BOUNDARY FLOW =                  

   INFLOWS - OUTFLOWS =        5.1082D+07     INFLOWS - OUTFLOWS =       -1586797.12
             --------                                   --------

 TOTAL STORAGE CHANGE =        4.8493D+07         STORAGE CHANGE =       -1613736.05
       --------------                             --------------
         LAND SURFACE =        3.9010D+07           LAND SURFACE =        -361344.25
            SOIL ZONE =        1.7029D+07              SOIL ZONE =        -582730.46
     UNSATURATED ZONE =        -189446.75       UNSATURATED ZONE =          81132.51
       SATURATED ZONE =       -1.3972D+07         SATURATED ZONE =        -219769.84
                LAKES =        6614428.44                  LAKES =        -531024.00

 OVERALL BUDGET ERROR =        2589737.99           BUDGET ERROR =          26938.92


  PERCENT DISCREPANCY =              1.25    PERCENT DISCREPANCY =              1.68



1
 SUMMARY VOLUMETRIC BUDGET FOR GSFLOW 
 DATE: 01 13 1981              CUMULATIVE TIME STEP:     105
 MODFLOW STRESS PERIOD      1     CURRENT TIME STEP:     105     ITERATIONS:       3

 -----------------------------------------------------------------------------------

   CUMULATIVE VOLUMES               L**3   RATES FOR THIS TIME STEP           L**3/T
   ------------------                      ------------------------

                                     IN                                         IN
                                     --                                         --
        PRECIPITATION =        2.1223D+08          PRECIPITATION =                  
           STREAMFLOW =                               STREAMFLOW =                  
     GW BOUNDARY FLOW =                         GW BOUNDARY FLOW =                  


                                    OUT                                        OUT
                                    ---                                        ---
   EVAPOTRANSPIRATION =        1.3396D+08     EVAPOTRANSPIRATION =        1403744.49
           STREAMFLOW =        3.5650D+07             STREAMFLOW =         457521.16
     GW BOUNDARY FLOW =                         GW BOUNDARY FLOW =                  

   INFLOWS - OUTFLOWS =        4.2616D+07     INFLOWS - OUTFLOWS =       -1861265.64
             --------                                   --------

 TOTAL STORAGE CHANGE =        3.9875D+07         STORAGE CHANGE =       -1879775.18
       --------------                             --------------
         LAND SURFACE =        3.7468D+07           LAND SURFACE =        -472696.86
            SOIL ZONE =        1.4431D+07              SOIL ZONE =        -520151.75
     UNSATURATED ZONE =          87664.52       UNSATURATED ZONE =          23787.04
       SATURATED ZONE =       -1.5264D+07         SATURATED ZONE =        -180154.30
                LAKES =        3153339.19                  LAKES =        -730559.31

 OVERALL BUDGET ERROR =        2741033.71           BUDGET ERROR =          18509.53


  PERCENT DISCREPANCY =              1.30    PERCENT DISCREPANCY =              0.99



1
 SUMMARY VOLUMETRIC BUDGET FOR GSFLOW 
 DATE: 01 20 1981              CUMULATIVE TIME STEP:     112
 MODFLOW STRESS PERIOD      1     CURRENT TIME STEP:     112     ITERATIONS:      12

 -----------------------------------------------------------------------------------

   CUMULATIVE VOLUMES               L**3   RATES FOR THIS TIME STEP           L**3/T
   ------------------                      ------------------------

                                     IN                                         IN
                                     --                                         --
        PRECIPITATION =        2.2423D+08          PRECIPITATION =        6001392.59
           STREAMFLOW =                               STREAMFLOW =                  
     GW BOUNDARY FLOW =                         GW BOUNDARY FLOW =                  


                                    OUT                                        OUT
                                    ---                                        ---
   EVAPOTRANSPIRATION =        1.4498D+08     EVAPOTRANSPIRATION =        1812032.69
           STREAMFLOW =        3.9241D+07             STREAMFLOW =         485521.72
     GW BOUNDARY FLOW =                         GW BOUNDARY FLOW =                  

   INFLOWS - OUTFLOWS =        4.0009D+07     INFLOWS - OUTFLOWS =        3703838.18
             --------                                   --------

 TOTAL STORAGE CHANGE =        3.7029D+07         STORAGE CHANGE =        3585664.92
       --------------                             --------------
         LAND SURFACE =        3.4618D+07           LAND SURFACE =         551847.56
            SOIL ZONE =        1.5990D+07              SOIL ZONE =        1363710.86
     UNSATURATED ZONE =         522358.69       UNSATURATED ZONE =         135778.98
       SATURATED ZONE =       -1.5905D+07         SATURATED ZONE =          85711.64
                LAKES =        1803076.52                  LAKES =        1448615.88

 OVERALL BUDGET ERROR =        2980803.59           BUDGET ERROR =         118173.26


  PERCENT DISCREPANCY =              1.34    PERCENT DISCREPANCY =              1.99



1
 SUMMARY VOLUMETRIC BUDGET FOR GSFLOW 
 DATE: 01 27 1981              CUMULATIVE TIME STEP:     119
 MODFLOW STRESS PERIOD      1     CURRENT TIME STEP:     119     ITERATIONS:      15

 -----------------------------------------------------------------------------------

   CUMULATIVE VOLUMES               L**3   RATES FOR THIS TIME STEP           L**3/T
   ------------------                      ------------------------

                                     IN                                         IN
                                     --                                         --
        PRECIPITATION =        3.3525D+08          PRECIPITATION =        6.0014D+07
           STREAMFLOW =                               STREAMFLOW =                  
     GW BOUNDARY FLOW =                         GW BOUNDARY FLOW =                  


                                    OUT                                        OUT
                                    ---                                        ---
   EVAPOTRANSPIRATION =        1.5407D+08     EVAPOTRANSPIRATION =         663125.29
           STREAMFLOW =        4.1752D+07             STREAMFLOW =         345811.31
     GW BOUNDARY FLOW =                         GW BOUNDARY FLOW =                  

   INFLOWS - OUTFLOWS =        1.3943D+08     INFLOWS - OUTFLOWS =        5.9005D+07
             --------                                   --------

 TOTAL STORAGE CHANGE =        1.3628D+08         STORAGE CHANGE =        5.8957D+07
       --------------                             --------------
         LAND SURFACE =        1.0380D+08           LAND SURFACE =        4.0704D+07
            SOIL ZONE =        1.8073D+07              SOIL ZONE =        1754008.49
     UNSATURATED ZONE =        1201225.86       UNSATURATED ZONE =         120399.07
       SATURATED ZONE =       -1.6481D+07         SATURATED ZONE =          78768.67
                LAKES =        2.9690D+07                  LAKES =        1.6300D+07

 OVERALL BUDGET ERROR =        3152092.06           BUDGET ERROR =          47582.75


  PERCENT DISCREPANCY =              0.94    PERCENT DISCREPANCY =              0.08



1
 SUMMARY VOLUMETRIC BUDGET FOR GSFLOW 
 DATE: 02 03 1981              CUMULATIVE TIME STEP:     126
 MODFLOW STRESS PERIOD      1     CURRENT TIME STEP:     126     ITERATIONS:      21

 -----------------------------------------------------------------------------------

   CUMULATIVE VOLUMES               L**3   RATES FOR THIS TIME STEP           L**3/T
   ------------------                      ------------------------

                                     IN                                         IN
                                     --                                         --
        PRECIPITATION =        4.0137D+08          PRECIPITATION =                  
           STREAMFLOW =                               STREAMFLOW =                  
     GW BOUNDARY FLOW =                         GW BOUNDARY FLOW =                  


                                    OUT                                        OUT
                                    ---                                        ---
   EVAPOTRANSPIRATION =        1.5769D+08     EVAPOTRANSPIRATION =         897749.75
           STREAMFLOW =        4.4232D+07             STREAMFLOW =         354891.78
     GW BOUNDARY FLOW =                         GW BOUNDARY FLOW =                  

   INFLOWS - OUTFLOWS =        1.9945D+08     INFLOWS - OUTFLOWS =       -1252641.53
             --------                                   --------

 TOTAL STORAGE CHANGE =        1.9654D+08         STORAGE CHANGE =       -1268723.80
       --------------                             --------------
         LAND SURFACE =        1.5000D+08           LAND SURFACE =        -514046.87
            SOIL ZONE =        1.7074D+07              SOIL ZONE =        -141355.84
     UNSATURATED ZONE =        1624570.30       UNSATURATED ZONE =          30791.20
       SATURATED ZONE =       -1.7719D+07         SATURATED ZONE =        -175661.59
                LAKES =        4.5563D+07                  LAKES =        -468450.69

 OVERALL BUDGET ERROR =        2906374.57           BUDGET ERROR =          16082.27


  PERCENT DISCREPANCY =              0.73    PERCENT DISCREPANCY =              1.28



1
 SUMMARY VOLUMETRIC BUDGET FOR GSFLOW 
 DATE: 02 10 1981              CUMULATIVE TIME STEP:     133
 MODFLOW STRESS PERIOD      1     CURRENT TIME STEP:     133     ITERATIONS:       3

 -----------------------------------------------------------------------------------

   CUMULATIVE VOLUMES               L**3   RATES FOR THIS TIME STEP           L**3/T
   ------------------                      ------------------------

                                     IN                                         IN
                                     --                                         --
        PRECIPITATION =        4.1375D+08          PRECIPITATION =        3095932.43
           STREAMFLOW =                               STREAMFLOW =                  
     GW BOUNDARY FLOW =                         GW BOUNDARY FLOW =                  


                                    OUT                                        OUT
                                    ---                                        ---
   EVAPOTRANSPIRATION =        1.6309D+08     EVAPOTRANSPIRATION =         577879.05
           STREAMFLOW =        4.6626D+07             STREAMFLOW =         340304.91
     GW BOUNDARY FLOW =                         GW BOUNDARY FLOW =                  

   INFLOWS - OUTFLOWS =        2.0404D+08     INFLOWS - OUTFLOWS =        2177748.48
             --------                                   --------

 TOTAL STORAGE CHANGE =        2.0102D+08         STORAGE CHANGE =        2159105.23
       --------------                             --------------
         LAND SURFACE =        1.5542D+08           LAND SURFACE =        1647975.48
            SOIL ZONE =        1.6987D+07              SOIL ZONE =         193621.49
     UNSATURATED ZONE =        1701795.12       UNSATURATED ZONE =           8208.98
       SATURATED ZONE =       -1.8826D+07         SATURATED ZONE =        -150596.22
                LAKES =        4.5742D+07                  LAKES =         459895.50

 OVERALL BUDGET ERROR =        3015100.78           BUDGET ERROR =          18643.25


  PERCENT DISCREPANCY =              0.73    PERCENT DISCREPANCY =              0.60



1
 SUMMARY VOLUMETRIC BUDGET FOR GSFLOW 
 DATE: 02 17 1981              CUMULATIVE TIME STEP:     140
 MODFLOW STRESS PERIOD      1     CURRENT TIME STEP:     140     ITERATIONS:      32

 -----------------------------------------------------------------------------------

   CUMULATIVE VOLUMES               L**3   RATES FOR THIS TIME STEP           L**3/T
   ------------------                      ------------------------

                                     IN                                         IN
                                     --                                         --
        PRECIPITATION =        4.6328D+08          PRECIPITATION =                  
           STREAMFLOW =                               STREAMFLOW =                  
     GW BOUNDARY FLOW =                         GW BOUNDARY FLOW =                  


                                    OUT                                        OUT
                                    ---                                        ---
   EVAPOTRANSPIRATION =        1.7438D+08     EVAPOTRANSPIRATION =        2612618.84
           STREAMFLOW =        4.8976D+07             STREAMFLOW =         285389.16
     GW BOUNDARY FLOW =                         GW BOUNDARY FLOW =                  

   INFLOWS - OUTFLOWS =        2.3993D+08     INFLOWS - OUTFLOWS =       -2898007.99
             --------                                   --------

 TOTAL STORAGE CHANGE =        2.3628D+08         STORAGE CHANGE =       -2956397.38
       --------------                             --------------
         LAND SURFACE =        1.6983D+08           LAND SURFACE =       -2316327.39
            SOIL ZONE =        2.3846D+07              SOIL ZONE =         -56437.53
     UNSATURATED ZONE =        2735785.36       UNSATURATED ZONE =         187344.78
       SATURATED ZONE =       -1.8917D+07         SATURATED ZONE =        -127128.55
                LAKES =        5.8777D+07                  LAKES =        -643848.69

 OVERALL BUDGET ERROR =        3649658.86           BUDGET ERROR =          58389.39


  PERCENT DISCREPANCY =              0.79    PERCENT DISCREPANCY =              1.99



1
 SUMMARY VOLUMETRIC BUDGET FOR GSFLOW 
 DATE: 02 24 1981              CUMULATIVE TIME STEP:     147
 MODFLOW STRESS PERIOD      1     CURRENT TIME STEP:     147     ITERATIONS:      15

 -----------------------------------------------------------------------------------

   CUMULATIVE VOLUMES               L**3   RATES FOR THIS TIME STEP           L**3/T
   ------------------                      ------------------------

                                     IN                                         IN
                                     --                                         --
        PRECIPITATION =        4.8805D+08          PRECIPITATION =        1.8576D+07
           STREAMFLOW =                               STREAMFLOW =                  
     GW BOUNDARY FLOW =                         GW BOUNDARY FLOW =                  


                                    OUT                                        OUT
                                    ---                                        ---
   EVAPOTRANSPIRATION =        1.8775D+08     EVAPOTRANSPIRATION =        1355371.02
           STREAMFLOW =        5.0060D+07             STREAMFLOW =         143123.89
     GW BOUNDARY FLOW =                         GW BOUNDARY FLOW =                  

   INFLOWS - OUTFLOWS =        2.5024D+08     INFLOWS - OUTFLOWS =        1.7077D+07
             --------                                   --------

 TOTAL STORAGE CHANGE =        2.4611D+08         STORAGE CHANGE =        1.7022D+07
       --------------                             --------------
         LAND SURFACE =        1.6962D+08           LAND SURFACE =        1.0824D+07
            SOIL ZONE =        2.6076D+07              SOIL ZONE =         470196.35
     UNSATURATED ZONE =        1558331.71       UNSATURATED ZONE =         343298.83
       SATURATED ZONE =       -1.7097D+07         SATURATED ZONE =          48458.81
                LAKES =        6.5956D+07                  LAKES =        5336594.50

 OVERALL BUDGET ERROR =        4131022.06           BUDGET ERROR =          54811.64


  PERCENT DISCREPANCY =              0.85    PERCENT DISCREPANCY =              0.30



1
 SUMMARY VOLUMETRIC BUDGET FOR GSFLOW 
 DATE: 03 03 1981              CUMULATIVE TIME STEP:     154
 MODFLOW STRESS PERIOD      1     CURRENT TIME STEP:     154     ITERATIONS:      16

 -----------------------------------------------------------------------------------

   CUMULATIVE VOLUMES               L**3   RATES FOR THIS TIME STEP           L**3/T
   ------------------                      ------------------------

                                     IN                                         IN
                                     --                                         --
        PRECIPITATION =        5.0056D+08          PRECIPITATION =                  
           STREAMFLOW =                               STREAMFLOW =                  
     GW BOUNDARY FLOW =                         GW BOUNDARY FLOW =                  


                                    OUT                                        OUT
                                    ---                                        ---
   EVAPOTRANSPIRATION =        1.9627D+08     EVAPOTRANSPIRATION =        2160937.57
           STREAMFLOW =        5.1106D+07             STREAMFLOW =         161574.77
     GW BOUNDARY FLOW =                         GW BOUNDARY FLOW =                  

   INFLOWS - OUTFLOWS =        2.5319D+08     INFLOWS - OUTFLOWS =       -2322512.34
             --------                                   --------

 TOTAL STORAGE CHANGE =        2.4888D+08         STORAGE CHANGE =       -2353428.02
       --------------                             --------------
         LAND SURFACE =        1.7232D+08           LAND SURFACE =       -1112915.94
            SOIL ZONE =        2.4192D+07              SOIL ZONE =        -375974.72
     UNSATURATED ZONE =        2525989.02       UNSATURATED ZONE =          66139.67
       SATURATED ZONE =       -1.8334D+07         SATURATED ZONE =        -179072.59
                LAKES =        6.8180D+07                  LAKES =        -751604.44

 OVERALL BUDGET ERROR =        4301966.57           BUDGET ERROR =          30915.68


  PERCENT DISCREPANCY =              0.86    PERCENT DISCREPANCY =              1.32



1
 SUMMARY VOLUMETRIC BUDGET FOR GSFLOW 
 DATE: 03 10 1981              CUMULATIVE TIME STEP:     161
 MODFLOW STRESS PERIOD      1     CURRENT TIME STEP:     161     ITERATIONS:      42

 -----------------------------------------------------------------------------------

   CUMULATIVE VOLUMES               L**3   RATES FOR THIS TIME STEP           L**3/T
   ------------------                      ------------------------

                                     IN                                         IN
                                     --                                         --
        PRECIPITATION =        5.0378D+08          PRECIPITATION =        3221591.34
           STREAMFLOW =                               STREAMFLOW =                  
     GW BOUNDARY FLOW =                         GW BOUNDARY FLOW =                  


                                    OUT                                        OUT
                                    ---                                        ---
   EVAPOTRANSPIRATION =        2.1334D+08     EVAPOTRANSPIRATION =        1910913.88
           STREAMFLOW =        5.2250D+07             STREAMFLOW =         163871.41
     GW BOUNDARY FLOW =                         GW BOUNDARY FLOW =                  

   INFLOWS - OUTFLOWS =        2.3819D+08     INFLOWS - OUTFLOWS =        1146806.05
             --------                                   --------

 TOTAL STORAGE CHANGE =        2.3365D+08         STORAGE CHANGE =        1105572.26
       --------------                             --------------
         LAND SURFACE =        1.5960D+08           LAND SURFACE =       -1847354.72
            SOIL ZONE =        2.4732D+07              SOIL ZONE =        1270205.30
     UNSATURATED ZONE =        2988645.87       UNSATURATED ZONE =         158863.55
       SATURATED ZONE =       -1.8856D+07         SATURATED ZONE =         135858.25
                LAKES =        6.5184D+07                  LAKES =        1387999.88

 OVERALL BUDGET ERROR =        4538733.77           BUDGET ERROR =          41233.79


  PERCENT DISCREPANCY =              0.91    PERCENT DISCREPANCY =              1.29



1
 SUMMARY VOLUMETRIC BUDGET FOR GSFLOW 
 DATE: 03 17 1981              CUMULATIVE TIME STEP:     168
 MODFLOW STRESS PERIOD      1     CURRENT TIME STEP:     168     ITERATIONS:      33

 -----------------------------------------------------------------------------------

   CUMULATIVE VOLUMES               L**3   RATES FOR THIS TIME STEP           L**3/T
   ------------------                      ------------------------

                                     IN                                         IN
                                     --                                         --
        PRECIPITATION =        5.1345D+08          PRECIPITATION =        3221591.34
           STREAMFLOW =                               STREAMFLOW =                  
     GW BOUNDARY FLOW =                         GW BOUNDARY FLOW =                  


                                    OUT                                        OUT
                                    ---                                        ---
   EVAPOTRANSPIRATION =        2.2791D+08     EVAPOTRANSPIRATION =        1041892.52
           STREAMFLOW =        5.3446D+07             STREAMFLOW =         174561.34
     GW BOUNDARY FLOW =                         GW BOUNDARY FLOW =                  

   INFLOWS - OUTFLOWS =        2.3209D+08     INFLOWS - OUTFLOWS =        2005137.47
             --------                                   --------

 TOTAL STORAGE CHANGE =        2.2738D+08         STORAGE CHANGE =        1972023.20
       --------------                             --------------
         LAND SURFACE =        1.5550D+08           LAND SURFACE =        1505005.03
            SOIL ZONE =        2.3801D+07              SOIL ZONE =          25417.36
     UNSATURATED ZONE =        3582214.45       UNSATURATED ZONE =        -103491.16
       SATURATED ZONE =       -1.9576D+07         SATURATED ZONE =           1920.78
                LAKES =        6.4078D+07                  LAKES =         543171.19

 OVERALL BUDGET ERROR =        4708940.34           BUDGET ERROR =          33114.27


  PERCENT DISCREPANCY =              0.92    PERCENT DISCREPANCY =              1.03



1
 SUMMARY VOLUMETRIC BUDGET FOR GSFLOW 
 DATE: 03 24 1981              CUMULATIVE TIME STEP:     175
 MODFLOW STRESS PERIOD      1     CURRENT TIME STEP:     175     ITERATIONS:      21

 -----------------------------------------------------------------------------------

   CUMULATIVE VOLUMES               L**3   RATES FOR THIS TIME STEP           L**3/T
   ------------------                      ------------------------

                                     IN                                         IN
                                     --                                         --
        PRECIPITATION =        5.7144D+08          PRECIPITATION =        6443182.67
           STREAMFLOW =                               STREAMFLOW =                  
     GW BOUNDARY FLOW =                         GW BOUNDARY FLOW =                  


                                    OUT                                        OUT
                                    ---                                        ---
   EVAPOTRANSPIRATION =        2.4182D+08     EVAPOTRANSPIRATION =        1710107.74
           STREAMFLOW =        5.4582D+07             STREAMFLOW =         164599.14
     GW BOUNDARY FLOW =                         GW BOUNDARY FLOW =                  

   INFLOWS - OUTFLOWS =        2.7504D+08     INFLOWS - OUTFLOWS =        4568475.79
             --------                                   --------

 TOTAL STORAGE CHANGE =        2.7006D+08         STORAGE CHANGE =        4524211.88
       --------------                             --------------
         LAND SURFACE =        1.8290D+08           LAND SURFACE =        1419532.70
            SOIL ZONE =        2.6094D+07              SOIL ZONE =         785246.45
     UNSATURATED ZONE =        4502731.31       UNSATURATED ZONE =         179241.73
       SATURATED ZONE =       -2.0015D+07         SATURATED ZONE =          90651.00
                LAKES =        7.6580D+07                  LAKES =        2049540.00

 OVERALL BUDGET ERROR =        4979664.85           BUDGET ERROR =          44263.90


  PERCENT DISCREPANCY =              0.88    PERCENT DISCREPANCY =              0.69



1
 SUMMARY VOLUMETRIC BUDGET FOR GSFLOW 
 DATE: 03 31 1981              CUMULATIVE TIME STEP:     182
 MODFLOW STRESS PERIOD      1     CURRENT TIME STEP:     182     ITERATIONS:      28

 -----------------------------------------------------------------------------------

   CUMULATIVE VOLUMES               L**3   RATES FOR THIS TIME STEP           L**3/T
   ------------------                      ------------------------

                                     IN                                         IN
                                     --                                         --
        PRECIPITATION =        6.3587D+08          PRECIPITATION =        6443182.67
           STREAMFLOW =                               STREAMFLOW =                  
     GW BOUNDARY FLOW =                         GW BOUNDARY FLOW =                  


                                    OUT                                        OUT
                                    ---                                        ---
   EVAPOTRANSPIRATION =        2.5631D+08     EVAPOTRANSPIRATION =        1135568.64
           STREAMFLOW =        5.5754D+07             STREAMFLOW =         154067.30
     GW BOUNDARY FLOW =                         GW BOUNDARY FLOW =                  

   INFLOWS - OUTFLOWS =        3.2380D+08     INFLOWS - OUTFLOWS =        5153546.73
             --------                                   --------

 TOTAL STORAGE CHANGE =        3.1881D+08         STORAGE CHANGE =        5114361.73
       --------------                             --------------
         LAND SURFACE =        2.0791D+08           LAND SURFACE =        2593093.23
            SOIL ZONE =        2.7738D+07              SOIL ZONE =         490986.00
     UNSATURATED ZONE =        1373251.49       UNSATURATED ZONE =         179601.51
       SATURATED ZONE =       -1.6477D+07         SATURATED ZONE =         -32448.52
                LAKES =        9.8265D+07                  LAKES =        1883129.50

 OVERALL BUDGET ERROR =        4986997.69           BUDGET ERROR =          39185.00


  PERCENT DISCREPANCY =              0.79    PERCENT DISCREPANCY =              0.61



1
 SUMMARY VOLUMETRIC BUDGET FOR GSFLOW 
 DATE: 04 07 1981              CUMULATIVE TIME STEP:     189
 MODFLOW STRESS PERIOD      1     CURRENT TIME STEP:     189     ITERATIONS:      49

 -----------------------------------------------------------------------------------

   CUMULATIVE VOLUMES               L**3   RATES FOR THIS TIME STEP           L**3/T
   ------------------                      ------------------------

                                     IN                                         IN
                                     --                                         --
        PRECIPITATION =        6.5328D+08          PRECIPITATION =                  
           STREAMFLOW =                               STREAMFLOW =                  
     GW BOUNDARY FLOW =                         GW BOUNDARY FLOW =                  


                                    OUT                                        OUT
                                    ---                                        ---
   EVAPOTRANSPIRATION =        2.7945D+08     EVAPOTRANSPIRATION =        4247450.24
           STREAMFLOW =        5.6884D+07             STREAMFLOW =         203682.64
     GW BOUNDARY FLOW =                         GW BOUNDARY FLOW =                  

   INFLOWS - OUTFLOWS =        3.1695D+08     INFLOWS - OUTFLOWS =       -4451132.88
             --------                                   --------

 TOTAL STORAGE CHANGE =        3.1170D+08         STORAGE CHANGE =       -4474884.99
       --------------                             --------------
         LAND SURFACE =        1.8629D+08           LAND SURFACE =       -6808849.76
            SOIL ZONE =        2.8275D+07              SOIL ZONE =         -13027.16
     UNSATURATED ZONE =        3312314.12       UNSATURATED ZONE =         340145.24
       SATURATED ZONE =       -1.5185D+07         SATURATED ZONE =         293820.06
                LAKES =        1.0901D+08                  LAKES =        1713026.62

 OVERALL BUDGET ERROR =        5246918.57           BUDGET ERROR =          23752.11


  PERCENT DISCREPANCY =              0.81    PERCENT DISCREPANCY =              0.53



1
 SUMMARY VOLUMETRIC BUDGET FOR GSFLOW 
 DATE: 04 14 1981              CUMULATIVE TIME STEP:     196
 MODFLOW STRESS PERIOD      1     CURRENT TIME STEP:     196     ITERATIONS:      37

 -----------------------------------------------------------------------------------

   CUMULATIVE VOLUMES               L**3   RATES FOR THIS TIME STEP           L**3/T
   ------------------                      ------------------------

                                     IN                                         IN
                                     --                                         --
        PRECIPITATION =        6.5328D+08          PRECIPITATION =                  
           STREAMFLOW =                               STREAMFLOW =                  
     GW BOUNDARY FLOW =                         GW BOUNDARY FLOW =                  


                                    OUT                                        OUT
                                    ---                                        ---
   EVAPOTRANSPIRATION =        3.0927D+08     EVAPOTRANSPIRATION =        5171056.66
           STREAMFLOW =        5.8130D+07             STREAMFLOW =         172000.17
     GW BOUNDARY FLOW =                         GW BOUNDARY FLOW =                  

   INFLOWS - OUTFLOWS =        2.8588D+08     INFLOWS - OUTFLOWS =       -5343056.83
             --------                                   --------

 TOTAL STORAGE CHANGE =        2.8041D+08         STORAGE CHANGE =       -5362827.26
       --------------                             --------------
         LAND SURFACE =        1.4105D+08           LAND SURFACE =       -7353371.52
            SOIL ZONE =        2.3823D+07              SOIL ZONE =        -905529.96
     UNSATURATED ZONE =        5309407.67       UNSATURATED ZONE =         248589.20
       SATURATED ZONE =       -1.3529D+07         SATURATED ZONE =         268805.53
                LAKES =        1.2376D+08                  LAKES =        2378679.50

 OVERALL BUDGET ERROR =        5474858.17           BUDGET ERROR =          19770.43


  PERCENT DISCREPANCY =              0.84    PERCENT DISCREPANCY =              0.37



1
 SUMMARY VOLUMETRIC BUDGET FOR GSFLOW 
 DATE: 04 21 1981              CUMULATIVE TIME STEP:     203
 MODFLOW STRESS PERIOD      1     CURRENT TIME STEP:     203     ITERATIONS:      53

 -----------------------------------------------------------------------------------

   CUMULATIVE VOLUMES               L**3   RATES FOR THIS TIME STEP           L**3/T
   ------------------                      ------------------------

                                     IN                                         IN
                                     --                                         --
        PRECIPITATION =        6.7418D+08          PRECIPITATION =                  
           STREAMFLOW =                               STREAMFLOW =                  
     GW BOUNDARY FLOW =                         GW BOUNDARY FLOW =                  


                                    OUT                                        OUT
                                    ---                                        ---
   EVAPOTRANSPIRATION =        3.3937D+08     EVAPOTRANSPIRATION =        5676776.19
           STREAMFLOW =        5.9345D+07             STREAMFLOW =         169579.17
     GW BOUNDARY FLOW =                         GW BOUNDARY FLOW =                  

   INFLOWS - OUTFLOWS =        2.7546D+08     INFLOWS - OUTFLOWS =       -5846355.36
             --------                                   --------

 TOTAL STORAGE CHANGE =        2.7004D+08         STORAGE CHANGE =       -5863054.50
       --------------                             --------------
         LAND SURFACE =        1.1854D+08           LAND SURFACE =       -3228226.29
            SOIL ZONE =        2.1950D+07              SOIL ZONE =       -2078717.92
     UNSATURATED ZONE =        6411106.94       UNSATURATED ZONE =          91499.99
       SATURATED ZONE =       -1.3331D+07         SATURATED ZONE =         -37201.72
                LAKES =        1.3647D+08                  LAKES =        -610408.56

 OVERALL BUDGET ERROR =        5419388.25           BUDGET ERROR =          16699.13


  PERCENT DISCREPANCY =              0.81    PERCENT DISCREPANCY =              0.29



1
 SUMMARY VOLUMETRIC BUDGET FOR GSFLOW 
 DATE: 04 28 1981              CUMULATIVE TIME STEP:     210
 MODFLOW STRESS PERIOD      1     CURRENT TIME STEP:     210     ITERATIONS:      47

 -----------------------------------------------------------------------------------

   CUMULATIVE VOLUMES               L**3   RATES FOR THIS TIME STEP           L**3/T
   ------------------                      ------------------------

                                     IN                                         IN
                                     --                                         --
        PRECIPITATION =        6.8114D+08          PRECIPITATION =                  
           STREAMFLOW =                               STREAMFLOW =                  
     GW BOUNDARY FLOW =                         GW BOUNDARY FLOW =                  


                                    OUT                                        OUT
                                    ---                                        ---
   EVAPOTRANSPIRATION =        3.8077D+08     EVAPOTRANSPIRATION =        5632480.04
           STREAMFLOW =        6.0557D+07             STREAMFLOW =         169029.37
     GW BOUNDARY FLOW =                         GW BOUNDARY FLOW =                  

   INFLOWS - OUTFLOWS =        2.3982D+08     INFLOWS - OUTFLOWS =       -5801509.41
             --------                                   --------

 TOTAL STORAGE CHANGE =        2.3436D+08         STORAGE CHANGE =       -5811165.89
       --------------                             --------------
         LAND SURFACE =        9.3061D+07           LAND SURFACE =       -4036144.09
            SOIL ZONE =        1.1922D+07              SOIL ZONE =       -1674077.80
     UNSATURATED ZONE =        6487314.42       UNSATURATED ZONE =         -36618.93
       SATURATED ZONE =       -1.3189D+07         SATURATED ZONE =         113644.55
                LAKES =        1.3608D+08                  LAKES =        -177969.61

 OVERALL BUDGET ERROR =        5451014.71           BUDGET ERROR =           9656.47


  PERCENT DISCREPANCY =              0.80    PERCENT DISCREPANCY =              0.17



1
 SUMMARY VOLUMETRIC BUDGET FOR GSFLOW 
 DATE: 05 05 1981              CUMULATIVE TIME STEP:     217
 MODFLOW STRESS PERIOD      1     CURRENT TIME STEP:     217     ITERATIONS:      70

 -----------------------------------------------------------------------------------

   CUMULATIVE VOLUMES               L**3   RATES FOR THIS TIME STEP           L**3/T
   ------------------                      ------------------------

                                     IN                                         IN
                                     --                                         --
        PRECIPITATION =        6.8811D+08          PRECIPITATION =                  
           STREAMFLOW =                               STREAMFLOW =                  
     GW BOUNDARY FLOW =                         GW BOUNDARY FLOW =                  


                                    OUT                                        OUT
                                    ---                                        ---
   EVAPOTRANSPIRATION =        4.1880D+08     EVAPOTRANSPIRATION =        3777872.78
           STREAMFLOW =        6.1775D+07             STREAMFLOW =         173796.00
     GW BOUNDARY FLOW =                         GW BOUNDARY FLOW =                  

   INFLOWS - OUTFLOWS =        2.0754D+08     INFLOWS - OUTFLOWS =       -3951668.78
             --------                                   --------

 TOTAL STORAGE CHANGE =        2.0206D+08         STORAGE CHANGE =       -3952766.29
       --------------                             --------------
         LAND SURFACE =        6.7797D+07           LAND SURFACE =       -2954584.90
            SOIL ZONE =        5252663.44              SOIL ZONE =        -921784.94
     UNSATURATED ZONE =        5121472.22       UNSATURATED ZONE =         -70716.46
       SATURATED ZONE =       -1.2255D+07         SATURATED ZONE =         -12349.31
                LAKES =        1.3614D+08                  LAKES =           6669.32

 OVERALL BUDGET ERROR =        5482802.67           BUDGET ERROR =           1097.51


  PERCENT DISCREPANCY =              0.80    PERCENT DISCREPANCY =              0.03



1
 SUMMARY VOLUMETRIC BUDGET FOR GSFLOW 
 DATE: 05 12 1981              CUMULATIVE TIME STEP:     224
 MODFLOW STRESS PERIOD      1     CURRENT TIME STEP:     224     ITERATIONS:      62

 -----------------------------------------------------------------------------------

   CUMULATIVE VOLUMES               L**3   RATES FOR THIS TIME STEP           L**3/T
   ------------------                      ------------------------

                                     IN                                         IN
                                     --                                         --
        PRECIPITATION =        6.8811D+08          PRECIPITATION =                  
           STREAMFLOW =                               STREAMFLOW =                  
     GW BOUNDARY FLOW =                         GW BOUNDARY FLOW =                  


                                    OUT                                        OUT
                                    ---                                        ---
   EVAPOTRANSPIRATION =        4.4716D+08     EVAPOTRANSPIRATION =        4487044.83
           STREAMFLOW =        6.2972D+07             STREAMFLOW =         168853.17
     GW BOUNDARY FLOW =                         GW BOUNDARY FLOW =                  

   INFLOWS - OUTFLOWS =        1.7798D+08     INFLOWS - OUTFLOWS =       -4655898.00
             --------                                   --------

 TOTAL STORAGE CHANGE =        1.7249D+08         STORAGE CHANGE =       -4653090.81
       --------------                             --------------
         LAND SURFACE =        4.4652D+07           LAND SURFACE =       -3401591.14
            SOIL ZONE =       -1387078.89              SOIL ZONE =        -952950.24
     UNSATURATED ZONE =        2960655.83       UNSATURATED ZONE =        -839262.17
       SATURATED ZONE =       -1.0895D+07         SATURATED ZONE =         540478.12
                LAKES =        1.3716D+08                  LAKES =            234.61

 OVERALL BUDGET ERROR =        5483962.56           BUDGET ERROR =          -2807.20


  PERCENT DISCREPANCY =              0.80    PERCENT DISCREPANCY =             -0.06



1
 SUMMARY VOLUMETRIC BUDGET FOR GSFLOW 
 DATE: 05 19 1981              CUMULATIVE TIME STEP:     231
 MODFLOW STRESS PERIOD      1     CURRENT TIME STEP:     231     ITERATIONS:      43

 -----------------------------------------------------------------------------------

   CUMULATIVE VOLUMES               L**3   RATES FOR THIS TIME STEP           L**3/T
   ------------------                      ------------------------

                                     IN                                         IN
                                     --                                         --
        PRECIPITATION =        7.4671D+08          PRECIPITATION =        3447112.78
           STREAMFLOW =                               STREAMFLOW =                  
     GW BOUNDARY FLOW =                         GW BOUNDARY FLOW =                  


                                    OUT                                        OUT
                                    ---                                        ---
   EVAPOTRANSPIRATION =        4.6525D+08     EVAPOTRANSPIRATION =        1758759.63
           STREAMFLOW =        6.4162D+07             STREAMFLOW =         172527.06
     GW BOUNDARY FLOW =                         GW BOUNDARY FLOW =                  

   INFLOWS - OUTFLOWS =        2.1730D+08     INFLOWS - OUTFLOWS =        1515826.08
             --------                                   --------

 TOTAL STORAGE CHANGE =        2.1216D+08         STORAGE CHANGE =        1505918.09
       --------------                             --------------
         LAND SURFACE =        4.8302D+07           LAND SURFACE =       -3469349.29
            SOIL ZONE =        1.0091D+07              SOIL ZONE =        2136462.57
     UNSATURATED ZONE =        2780116.35       UNSATURATED ZONE =         -16664.53
       SATURATED ZONE =       -1.0428D+07         SATURATED ZONE =          67619.09
                LAKES =        1.6141D+08                  LAKES =        2787850.25

 OVERALL BUDGET ERROR =        5138461.87           BUDGET ERROR =           9907.99


  PERCENT DISCREPANCY =              0.69    PERCENT DISCREPANCY =              0.29



1
 SUMMARY VOLUMETRIC BUDGET FOR GSFLOW 
 DATE: 05 26 1981              CUMULATIVE TIME STEP:     238
 MODFLOW STRESS PERIOD      1     CURRENT TIME STEP:     238     ITERATIONS:      16

 -----------------------------------------------------------------------------------

   CUMULATIVE VOLUMES               L**3   RATES FOR THIS TIME STEP           L**3/T
   ------------------                      ------------------------

                                     IN                                         IN
                                     --                                         --
        PRECIPITATION =        7.7429D+08          PRECIPITATION =        1.7236D+07
           STREAMFLOW =                               STREAMFLOW =                  
     GW BOUNDARY FLOW =                         GW BOUNDARY FLOW =                  


                                    OUT                                        OUT
                                    ---                                        ---
   EVAPOTRANSPIRATION =        4.9677D+08     EVAPOTRANSPIRATION =        2648208.99
           STREAMFLOW =        6.5363D+07             STREAMFLOW =         180466.05
     GW BOUNDARY FLOW =                         GW BOUNDARY FLOW =                  

   INFLOWS - OUTFLOWS =        2.1215D+08     INFLOWS - OUTFLOWS =        1.4407D+07
             --------                                   --------

 TOTAL STORAGE CHANGE =        2.0684D+08         STORAGE CHANGE =        1.4235D+07
       --------------                             --------------
         LAND SURFACE =        3.1890D+07           LAND SURFACE =        -275022.79
            SOIL ZONE =        8657710.90              SOIL ZONE =        4716051.51
     UNSATURATED ZONE =        2602172.70       UNSATURATED ZONE =          12876.50
       SATURATED ZONE =       -9954011.91         SATURATED ZONE =         545491.75
                LAKES =        1.7365D+08                  LAKES =        9235728.00

 OVERALL BUDGET ERROR =        5310831.91           BUDGET ERROR =         171763.64


  PERCENT DISCREPANCY =              0.69    PERCENT DISCREPANCY =              1.00



1
 SUMMARY VOLUMETRIC BUDGET FOR GSFLOW 
 DATE: 06 02 1981              CUMULATIVE TIME STEP:     245
 MODFLOW STRESS PERIOD      1     CURRENT TIME STEP:     245     ITERATIONS:      65

 -----------------------------------------------------------------------------------

   CUMULATIVE VOLUMES               L**3   RATES FOR THIS TIME STEP           L**3/T
   ------------------                      ------------------------

                                     IN                                         IN
                                     --                                         --
        PRECIPITATION =        7.7429D+08          PRECIPITATION =                  
           STREAMFLOW =                               STREAMFLOW =                  
     GW BOUNDARY FLOW =                         GW BOUNDARY FLOW =                  


                                    OUT                                        OUT
                                    ---                                        ---
   EVAPOTRANSPIRATION =        5.3769D+08     EVAPOTRANSPIRATION =        5801803.55
           STREAMFLOW =        6.6583D+07             STREAMFLOW =         178725.95
     GW BOUNDARY FLOW =                         GW BOUNDARY FLOW =                  

   INFLOWS - OUTFLOWS =        1.7001D+08     INFLOWS - OUTFLOWS =       -5980529.50
             --------                                   --------

 TOTAL STORAGE CHANGE =        1.6467D+08         STORAGE CHANGE =       -5986399.66
       --------------                             --------------
         LAND SURFACE =        1.9162D+07           LAND SURFACE =       -1524432.06
            SOIL ZONE =       -7613995.76              SOIL ZONE =       -1966498.96
     UNSATURATED ZONE =       -1989588.50       UNSATURATED ZONE =        -125270.21
       SATURATED ZONE =       -8397365.85         SATURATED ZONE =        -222276.92
                LAKES =        1.6351D+08                  LAKES =       -2147921.50

 OVERALL BUDGET ERROR =        5342952.56           BUDGET ERROR =           5870.15


  PERCENT DISCREPANCY =              0.69    PERCENT DISCREPANCY =              0.10



1
 SUMMARY VOLUMETRIC BUDGET FOR GSFLOW 
 DATE: 06 09 1981              CUMULATIVE TIME STEP:     252
 MODFLOW STRESS PERIOD      1     CURRENT TIME STEP:     252     ITERATIONS:      50

 -----------------------------------------------------------------------------------

   CUMULATIVE VOLUMES               L**3   RATES FOR THIS TIME STEP           L**3/T
   ------------------                      ------------------------

                                     IN                                         IN
                                     --                                         --
        PRECIPITATION =        7.7752D+08          PRECIPITATION =                  
           STREAMFLOW =                               STREAMFLOW =                  
     GW BOUNDARY FLOW =                         GW BOUNDARY FLOW =                  


                                    OUT                                        OUT
                                    ---                                        ---
   EVAPOTRANSPIRATION =        5.7452D+08     EVAPOTRANSPIRATION =        5413915.82
           STREAMFLOW =        6.7827D+07             STREAMFLOW =         203133.83
     GW BOUNDARY FLOW =                         GW BOUNDARY FLOW =                  

   INFLOWS - OUTFLOWS =        1.3518D+08     INFLOWS - OUTFLOWS =       -5617049.65
             --------                                   --------

 TOTAL STORAGE CHANGE =        1.2982D+08         STORAGE CHANGE =       -5615920.35
       --------------                             --------------
         LAND SURFACE =        9796535.79           LAND SURFACE =        -964195.82
            SOIL ZONE =       -1.8503D+07              SOIL ZONE =       -1819633.74
     UNSATURATED ZONE =       -2818620.42       UNSATURATED ZONE =        -126081.81
       SATURATED ZONE =       -9629802.70         SATURATED ZONE =        -221054.73
                LAKES =        1.5098D+08                  LAKES =       -2484954.25

 OVERALL BUDGET ERROR =        5355381.31           BUDGET ERROR =          -1129.30


  PERCENT DISCREPANCY =              0.69    PERCENT DISCREPANCY =             -0.02



1
 SUMMARY VOLUMETRIC BUDGET FOR GSFLOW 
 DATE: 06 16 1981              CUMULATIVE TIME STEP:     259
 MODFLOW STRESS PERIOD      1     CURRENT TIME STEP:     259     ITERATIONS:      35

 -----------------------------------------------------------------------------------

   CUMULATIVE VOLUMES               L**3   RATES FOR THIS TIME STEP           L**3/T
   ------------------                      ------------------------

                                     IN                                         IN
                                     --                                         --
        PRECIPITATION =        7.7752D+08          PRECIPITATION =                  
           STREAMFLOW =                               STREAMFLOW =                  
     GW BOUNDARY FLOW =                         GW BOUNDARY FLOW =                  


                                    OUT                                        OUT
                                    ---                                        ---
   EVAPOTRANSPIRATION =        6.0221D+08     EVAPOTRANSPIRATION =        4683082.23
           STREAMFLOW =        7.0935D+07             STREAMFLOW =         702199.94
     GW BOUNDARY FLOW =                         GW BOUNDARY FLOW =                  

   INFLOWS - OUTFLOWS =        1.0438D+08     INFLOWS - OUTFLOWS =       -5385282.17
             --------                                   --------

 TOTAL STORAGE CHANGE =        9.8988D+07         STORAGE CHANGE =       -5385007.65
[...]
           STREAMFLOW =        1.6168D+09             STREAMFLOW =        4966705.50
     GW BOUNDARY FLOW =                         GW BOUNDARY FLOW =                  

   INFLOWS - OUTFLOWS =        1.0336D+09     INFLOWS - OUTFLOWS =        1138297.11
             --------                                   --------

 TOTAL STORAGE CHANGE =        1.0023D+09         STORAGE CHANGE =        1122565.48
       --------------                             --------------
         LAND SURFACE =        3.3540D+08           LAND SURFACE =        4606953.51
            SOIL ZONE =        5180317.62              SOIL ZONE =         -71092.28
     UNSATURATED ZONE =        1022752.17       UNSATURATED ZONE =          27460.75
       SATURATED ZONE =       -5.4731D+07         SATURATED ZONE =        -172880.00
                LAKES =        7.1538D+08                  LAKES =       -3267876.50

 OVERALL BUDGET ERROR =        3.1340D+07           BUDGET ERROR =          15731.63


  PERCENT DISCREPANCY =              0.57    PERCENT DISCREPANCY =              0.24



1
 SUMMARY VOLUMETRIC BUDGET FOR GSFLOW 
 DATE: 12 06 1983              CUMULATIVE TIME STEP:    1162
 MODFLOW STRESS PERIOD      1     CURRENT TIME STEP:    1162     ITERATIONS:       3

 -----------------------------------------------------------------------------------

   CUMULATIVE VOLUMES               L**3   RATES FOR THIS TIME STEP           L**3/T
   ------------------                      ------------------------

                                     IN                                         IN
                                     --                                         --
        PRECIPITATION =        5.6038D+09          PRECIPITATION =        3198161.89
           STREAMFLOW =                               STREAMFLOW =                  
     GW BOUNDARY FLOW =                         GW BOUNDARY FLOW =                  


                                    OUT                                        OUT
                                    ---                                        ---
   EVAPOTRANSPIRATION =        2.8996D+09     EVAPOTRANSPIRATION =         185752.78
           STREAMFLOW =        1.6522D+09             STREAMFLOW =        5064639.00
     GW BOUNDARY FLOW =                         GW BOUNDARY FLOW =                  

   INFLOWS - OUTFLOWS =        1.0520D+09     INFLOWS - OUTFLOWS =       -2052229.89
             --------                                   --------

 TOTAL STORAGE CHANGE =        1.0204D+09         STORAGE CHANGE =       -2079872.61
       --------------                             --------------
         LAND SURFACE =        3.7376D+08           LAND SURFACE =        2296320.51
            SOIL ZONE =        5745761.57              SOIL ZONE =        -130486.67
     UNSATURATED ZONE =        1281232.77       UNSATURATED ZONE =          29175.27
       SATURATED ZONE =       -5.5744D+07         SATURATED ZONE =        -162971.97
                LAKES =        6.9537D+08                  LAKES =       -4111909.75

 OVERALL BUDGET ERROR =        3.1628D+07           BUDGET ERROR =          27642.72


  PERCENT DISCREPANCY =              0.57    PERCENT DISCREPANCY =              0.53



1
 SUMMARY VOLUMETRIC BUDGET FOR GSFLOW 
 DATE: 12 13 1983              CUMULATIVE TIME STEP:    1169
 MODFLOW STRESS PERIOD      1     CURRENT TIME STEP:    1169     ITERATIONS:      13

 -----------------------------------------------------------------------------------

   CUMULATIVE VOLUMES               L**3   RATES FOR THIS TIME STEP           L**3/T
   ------------------                      ------------------------

                                     IN                                         IN
                                     --                                         --
        PRECIPITATION =        5.6998D+09          PRECIPITATION =        9594484.95
           STREAMFLOW =                               STREAMFLOW =                  
     GW BOUNDARY FLOW =                         GW BOUNDARY FLOW =                  


                                    OUT                                        OUT
                                    ---                                        ---
   EVAPOTRANSPIRATION =        2.9033D+09     EVAPOTRANSPIRATION =         226409.53
           STREAMFLOW =        1.6892D+09             STREAMFLOW =        5260512.00
     GW BOUNDARY FLOW =                         GW BOUNDARY FLOW =                  

   INFLOWS - OUTFLOWS =        1.1073D+09     INFLOWS - OUTFLOWS =        4107563.42
             --------                                   --------

 TOTAL STORAGE CHANGE =        1.0754D+09         STORAGE CHANGE =        4075098.43
       --------------                             --------------
         LAND SURFACE =        4.3778D+08           LAND SURFACE =        7019560.16
            SOIL ZONE =        6989522.37              SOIL ZONE =        -183010.44
     UNSATURATED ZONE =        1665410.23       UNSATURATED ZONE =          37310.58
       SATURATED ZONE =       -5.6368D+07         SATURATED ZONE =        -173951.62
                LAKES =        6.8535D+08                  LAKES =       -2624810.25

 OVERALL BUDGET ERROR =        3.1869D+07           BUDGET ERROR =          32464.99


  PERCENT DISCREPANCY =              0.56    PERCENT DISCREPANCY =              0.34



1
 SUMMARY VOLUMETRIC BUDGET FOR GSFLOW 
 DATE: 12 20 1983              CUMULATIVE TIME STEP:    1176
 MODFLOW STRESS PERIOD      1     CURRENT TIME STEP:    1176     ITERATIONS:       7

 -----------------------------------------------------------------------------------

   CUMULATIVE VOLUMES               L**3   RATES FOR THIS TIME STEP           L**3/T
   ------------------                      ------------------------

                                     IN                                         IN
                                     --                                         --
        PRECIPITATION =        5.7158D+09          PRECIPITATION =                  
           STREAMFLOW =                               STREAMFLOW =                  
     GW BOUNDARY FLOW =                         GW BOUNDARY FLOW =                  


                                    OUT                                        OUT
                                    ---                                        ---
   EVAPOTRANSPIRATION =        2.9111D+09     EVAPOTRANSPIRATION =         347159.40
           STREAMFLOW =        1.7277D+09             STREAMFLOW =        5578472.50
     GW BOUNDARY FLOW =                         GW BOUNDARY FLOW =                  

   INFLOWS - OUTFLOWS =        1.0769D+09     INFLOWS - OUTFLOWS =       -5925631.90
             --------                                   --------

 TOTAL STORAGE CHANGE =        1.0449D+09         STORAGE CHANGE =       -5951808.55
       --------------                             --------------
         LAND SURFACE =        4.4092D+08           LAND SURFACE =        -229898.36
            SOIL ZONE =        7726911.93              SOIL ZONE =        -180742.79
     UNSATURATED ZONE =        2158538.73       UNSATURATED ZONE =          38794.65
       SATURATED ZONE =       -5.7326D+07         SATURATED ZONE =        -186696.05
                LAKES =        6.5145D+08                  LAKES =       -5393266.00

 OVERALL BUDGET ERROR =        3.2001D+07           BUDGET ERROR =          26176.65


  PERCENT DISCREPANCY =              0.56    PERCENT DISCREPANCY =              0.44



1
 SUMMARY VOLUMETRIC BUDGET FOR GSFLOW 
 DATE: 12 27 1983              CUMULATIVE TIME STEP:    1183
 MODFLOW STRESS PERIOD      1     CURRENT TIME STEP:    1183     ITERATIONS:      21

 -----------------------------------------------------------------------------------

   CUMULATIVE VOLUMES               L**3   RATES FOR THIS TIME STEP           L**3/T
   ------------------                      ------------------------

                                     IN                                         IN
                                     --                                         --
        PRECIPITATION =        5.8917D+09          PRECIPITATION =        9594484.95
           STREAMFLOW =                               STREAMFLOW =                  
     GW BOUNDARY FLOW =                         GW BOUNDARY FLOW =                  


                                    OUT                                        OUT
                                    ---                                        ---
   EVAPOTRANSPIRATION =        2.9133D+09     EVAPOTRANSPIRATION =         396825.04
           STREAMFLOW =        1.7667D+09             STREAMFLOW =        5677393.00
     GW BOUNDARY FLOW =                         GW BOUNDARY FLOW =                  

   INFLOWS - OUTFLOWS =        1.2116D+09     INFLOWS - OUTFLOWS =        3520266.91
             --------                                   --------

 TOTAL STORAGE CHANGE =        1.1793D+09         STORAGE CHANGE =        3465862.40
       --------------                             --------------
         LAND SURFACE =        5.6571D+08           LAND SURFACE =        5841371.54
            SOIL ZONE =        8461677.89              SOIL ZONE =         228136.84
     UNSATURATED ZONE =        2437201.61       UNSATURATED ZONE =          95540.73
       SATURATED ZONE =       -5.7961D+07         SATURATED ZONE =         -87813.96
                LAKES =        6.6067D+08                  LAKES =       -2611372.75

 OVERALL BUDGET ERROR =        3.2272D+07           BUDGET ERROR =          54404.50


  PERCENT DISCREPANCY =              0.55    PERCENT DISCREPANCY =              0.57



1
 SUMMARY VOLUMETRIC BUDGET FOR GSFLOW 
 DATE: 01 03 1984              CUMULATIVE TIME STEP:    1190
 MODFLOW STRESS PERIOD      1     CURRENT TIME STEP:    1190     ITERATIONS:       4

 -----------------------------------------------------------------------------------

   CUMULATIVE VOLUMES               L**3   RATES FOR THIS TIME STEP           L**3/T
   ------------------                      ------------------------

                                     IN                                         IN
                                     --                                         --
        PRECIPITATION =        5.9235D+09          PRECIPITATION =                  
           STREAMFLOW =                               STREAMFLOW =                  
     GW BOUNDARY FLOW =                         GW BOUNDARY FLOW =                  


                                    OUT                                        OUT
                                    ---                                        ---
   EVAPOTRANSPIRATION =        2.9197D+09     EVAPOTRANSPIRATION =        1448068.01
           STREAMFLOW =        1.8063D+09             STREAMFLOW =        5603065.50
     GW BOUNDARY FLOW =                         GW BOUNDARY FLOW =                  

   INFLOWS - OUTFLOWS =        1.1974D+09     INFLOWS - OUTFLOWS =       -7051133.51
             --------                                   --------

 TOTAL STORAGE CHANGE =        1.1648D+09         STORAGE CHANGE =       -7075279.19
       --------------                             --------------
         LAND SURFACE =        5.7870D+08           LAND SURFACE =        -976138.39
            SOIL ZONE =        9174065.44              SOIL ZONE =        -188366.68
     UNSATURATED ZONE =        2991028.93       UNSATURATED ZONE =          41999.24
       SATURATED ZONE =       -5.8821D+07         SATURATED ZONE =        -190488.36
                LAKES =        6.3275D+08                  LAKES =       -5762285.00

 OVERALL BUDGET ERROR =        3.2608D+07           BUDGET ERROR =          24145.68


  PERCENT DISCREPANCY =              0.55    PERCENT DISCREPANCY =              0.34



1
 SUMMARY VOLUMETRIC BUDGET FOR GSFLOW 
 DATE: 01 10 1984              CUMULATIVE TIME STEP:    1197
 MODFLOW STRESS PERIOD      1     CURRENT TIME STEP:    1197     ITERATIONS:       8

 -----------------------------------------------------------------------------------

   CUMULATIVE VOLUMES               L**3   RATES FOR THIS TIME STEP           L**3/T
   ------------------                      ------------------------

                                     IN                                         IN
                                     --                                         --
        PRECIPITATION =        5.9235D+09          PRECIPITATION =                  
           STREAMFLOW =                               STREAMFLOW =                  
     GW BOUNDARY FLOW =                         GW BOUNDARY FLOW =                  


                                    OUT                                        OUT
                                    ---                                        ---
   EVAPOTRANSPIRATION =        2.9322D+09     EVAPOTRANSPIRATION =        1728763.35
           STREAMFLOW =        1.8438D+09             STREAMFLOW =        5235933.50
     GW BOUNDARY FLOW =                         GW BOUNDARY FLOW =                  

   INFLOWS - OUTFLOWS =        1.1475D+09     INFLOWS - OUTFLOWS =       -6964696.85
             --------                                   --------

 TOTAL STORAGE CHANGE =        1.1147D+09         STORAGE CHANGE =       -6996546.99
       --------------                             --------------
         LAND SURFACE =        5.6643D+08           LAND SURFACE =       -2016428.22
            SOIL ZONE =        1.0295D+07              SOIL ZONE =         295996.17
     UNSATURATED ZONE =        3360825.05       UNSATURATED ZONE =          75374.20
       SATURATED ZONE =       -5.9615D+07         SATURATED ZONE =         -69298.13
                LAKES =        5.9424D+08                  LAKES =       -5282191.00

 OVERALL BUDGET ERROR =        3.2817D+07           BUDGET ERROR =          31850.13


  PERCENT DISCREPANCY =              0.56    PERCENT DISCREPANCY =              0.46



1
 SUMMARY VOLUMETRIC BUDGET FOR GSFLOW 
 DATE: 01 17 1984              CUMULATIVE TIME STEP:    1204
 MODFLOW STRESS PERIOD      1     CURRENT TIME STEP:    1204     ITERATIONS:       6

 -----------------------------------------------------------------------------------

   CUMULATIVE VOLUMES               L**3   RATES FOR THIS TIME STEP           L**3/T
   ------------------                      ------------------------

                                     IN                                         IN
                                     --                                         --
        PRECIPITATION =        5.9475D+09          PRECIPITATION =                  
           STREAMFLOW =                               STREAMFLOW =                  
     GW BOUNDARY FLOW =                         GW BOUNDARY FLOW =                  


                                    OUT                                        OUT
                                    ---                                        ---
   EVAPOTRANSPIRATION =        2.9359D+09     EVAPOTRANSPIRATION =         514565.11
           STREAMFLOW =        1.8795D+09             STREAMFLOW =        5015584.50
     GW BOUNDARY FLOW =                         GW BOUNDARY FLOW =                  

   INFLOWS - OUTFLOWS =        1.1321D+09     INFLOWS - OUTFLOWS =       -5530149.61
             --------                                   --------

 TOTAL STORAGE CHANGE =        1.0992D+09         STORAGE CHANGE =       -5541446.19
       --------------                             --------------
         LAND SURFACE =        5.8186D+08           LAND SURFACE =        -369940.34
            SOIL ZONE =        9290269.99              SOIL ZONE =        -102131.44
     UNSATURATED ZONE =        3423544.41       UNSATURATED ZONE =          -9940.23
       SATURATED ZONE =       -6.0635D+07         SATURATED ZONE =        -145752.19
                LAKES =        5.6523D+08                  LAKES =       -4913682.00

 OVERALL BUDGET ERROR =        3.2897D+07           BUDGET ERROR =          11296.58


  PERCENT DISCREPANCY =              0.55    PERCENT DISCREPANCY =              0.20



1
 SUMMARY VOLUMETRIC BUDGET FOR GSFLOW 
 DATE: 01 24 1984              CUMULATIVE TIME STEP:    1211
 MODFLOW STRESS PERIOD      1     CURRENT TIME STEP:    1211     ITERATIONS:       9

 -----------------------------------------------------------------------------------

   CUMULATIVE VOLUMES               L**3   RATES FOR THIS TIME STEP           L**3/T
   ------------------                      ------------------------

                                     IN                                         IN
                                     --                                         --
        PRECIPITATION =        5.9535D+09          PRECIPITATION =                  
           STREAMFLOW =                               STREAMFLOW =                  
     GW BOUNDARY FLOW =                         GW BOUNDARY FLOW =                  


                                    OUT                                        OUT
                                    ---                                        ---
   EVAPOTRANSPIRATION =        2.9413D+09     EVAPOTRANSPIRATION =        1048017.09
           STREAMFLOW =        1.9143D+09             STREAMFLOW =        4917690.00
     GW BOUNDARY FLOW =                         GW BOUNDARY FLOW =                  

   INFLOWS - OUTFLOWS =        1.0979D+09     INFLOWS - OUTFLOWS =       -5965707.09
             --------                                   --------

 TOTAL STORAGE CHANGE =        1.0649D+09         STORAGE CHANGE =       -5969825.53
       --------------                             --------------
         LAND SURFACE =        5.8317D+08           LAND SURFACE =        -583964.56
            SOIL ZONE =        8754104.29              SOIL ZONE =         -67381.90
     UNSATURATED ZONE =        3223686.69       UNSATURATED ZONE =         -42008.64
       SATURATED ZONE =       -6.1624D+07         SATURATED ZONE =        -136465.42
                LAKES =        5.3136D+08                  LAKES =       -5140005.00

 OVERALL BUDGET ERROR =        3.2986D+07           BUDGET ERROR =           4118.44


  PERCENT DISCREPANCY =              0.56    PERCENT DISCREPANCY =              0.07



 Number of time steps:   1217;  Number of non-convergence:   0
 MF iterations:         22519;  SZ iterations:           22569
 Average MF iterations: 18.50;  Average SZ iterations:   18.54
 Maximum MF iterations:   136;  Maximum SZ iterations:     136

MF iteration distribution:      0   19   84  106   67   41   39   37   40   40
                               44   33   47   53   24   32   24   20   26   19
                               23   22   21   11   16   17   17   17   28    9
                               17    8   22    8   15    9   22    4    9    8
                               11    8    7    7    3   13    5    7    7    4
                                3    5    3    6    3    1    0    1    3    1
                                2    1    2    1    1    1    0    1    1    2
                                0    2    0    0    0    0    1    0    0    6

SZ computation distribution:    0   16   87  105   68   38   39   39   39   42
                               44   27   50   50   28   28   29   20   20   24
                               24   22   22   11   16   17   17   17   28    9
                               17    8   22    8   15    9   22    4    9    8
                               11    8    7    7    3   13    5    7    6    5
                                3    5    3    6    3    1    0    1    3    1
                                2    1    2    1    1    1    0    1    1    2
                                0    2    0    0    0    0    1    0    0    6

