1
 SUMMARY VOLUMETRIC BUDGET FOR GSFLOW 
 DATE: 10 07 1980              CUMULATIVE TIME STEP:       7
 MODFLOW STRESS PERIOD      1     CURRENT TIME STEP:       7     ITERATIONS:      14

 -----------------------------------------------------------------------------------

   CUMULATIVE VOLUMES               L**3   RATES FOR THIS TIME STEP           L**3/T
   ------------------                      ------------------------

                                     IN                                         IN
                                     --                                         --
        PRECIPITATION =                            PRECIPITATION =                  
           STREAMFLOW =                               STREAMFLOW =                  
     GW BOUNDARY FLOW =                         GW BOUNDARY FLOW =                  


                                    OUT                                        OUT
                                    ---                                        ---
   EVAPOTRANSPIRATION =        6637823.33     EVAPOTRANSPIRATION =         327268.19
           STREAMFLOW =        1672059.05             STREAMFLOW =         183556.66
     GW BOUNDARY FLOW =                         GW BOUNDARY FLOW =                  

   INFLOWS - OUTFLOWS =       -8309882.38     INFLOWS - OUTFLOWS =        -510824.85
             --------                                   --------

 TOTAL STORAGE CHANGE =       -1.7414D+07         STORAGE CHANGE =       -1649269.91
       --------------                             --------------
         LAND SURFACE =                             LAND SURFACE =                  
            SOIL ZONE =       -5740147.27              SOIL ZONE =        -270250.02
     UNSATURATED ZONE =       -1424635.19       UNSATURATED ZONE =         -62846.73
       SATURATED ZONE =       -1301195.14         SATURATED ZONE =        -269718.78
                LAKES =       -8948052.75                  LAKES =       -1046454.38

 OVERALL BUDGET ERROR =        9104147.98           BUDGET ERROR =        1138445.06

  ***WARNING, CUMULATIVE VOLUME OFF > 5%
  ***CAUTION, FLUX RATES OFF > 10%

  PERCENT DISCREPANCY =             70.78    PERCENT DISCREPANCY =            105.41



1
 SUMMARY VOLUMETRIC BUDGET FOR GSFLOW 
 DATE: 10 14 1980              CUMULATIVE TIME STEP:      14
 MODFLOW STRESS PERIOD      1     CURRENT TIME STEP:      14     ITERATIONS:       3

 -----------------------------------------------------------------------------------

   CUMULATIVE VOLUMES               L**3   RATES FOR THIS TIME STEP           L**3/T
   ------------------                      ------------------------

                                     IN                                         IN
                                     --                                         --
        PRECIPITATION =        1.3442D+07          PRECIPITATION =        6721104.51
           STREAMFLOW =                               STREAMFLOW =                  
     GW BOUNDARY FLOW =                         GW BOUNDARY FLOW =                  


                                    OUT                                        OUT
                                    ---                                        ---
   EVAPOTRANSPIRATION =        8376035.31     EVAPOTRANSPIRATION =         300084.27
           STREAMFLOW =        2279257.79             STREAMFLOW =          34825.50
     GW BOUNDARY FLOW =                         GW BOUNDARY FLOW =                  

   INFLOWS - OUTFLOWS =        2786915.92     INFLOWS - OUTFLOWS =        6386194.74
             --------                                   --------

 TOTAL STORAGE CHANGE =       -1.2391D+07         STORAGE CHANGE =        6106528.43
       --------------                             --------------
         LAND SURFACE =        2552191.87           LAND SURFACE =        1584944.64
            SOIL ZONE =         -63996.76              SOIL ZONE =        2954220.02
     UNSATURATED ZONE =       -1865695.23       UNSATURATED ZONE =         -57222.86
       SATURATED ZONE =       -2733486.70         SATURATED ZONE =        -123867.12
                LAKES =       -1.0280D+07                  LAKES =        1748453.75

 OVERALL BUDGET ERROR =        1.5178D+07           BUDGET ERROR =         279666.31

  ***WARNING, CUMULATIVE VOLUME OFF > 5%
  ***WARNING, FLUX RATES OFF > 3%

  PERCENT DISCREPANCY =             83.19    PERCENT DISCREPANCY =              4.25



1
 SUMMARY VOLUMETRIC BUDGET FOR GSFLOW 
 DATE: 10 21 1980              CUMULATIVE TIME STEP:      21
 MODFLOW STRESS PERIOD      1     CURRENT TIME STEP:      21     ITERATIONS:       3

 -----------------------------------------------------------------------------------

   CUMULATIVE VOLUMES               L**3   RATES FOR THIS TIME STEP           L**3/T
   ------------------                      ------------------------

                                     IN                                         IN
                                     --                                         --
        PRECIPITATION =        1.6803D+07          PRECIPITATION =                  
           STREAMFLOW =                               STREAMFLOW =                  
     GW BOUNDARY FLOW =                         GW BOUNDARY FLOW =                  


                                    OUT                                        OUT
                                    ---                                        ---
   EVAPOTRANSPIRATION =        1.2640D+07     EVAPOTRANSPIRATION =         788022.83
           STREAMFLOW =        3039697.02             STREAMFLOW =         364392.81
     GW BOUNDARY FLOW =                         GW BOUNDARY FLOW =                  

   INFLOWS - OUTFLOWS =        1123042.33     INFLOWS - OUTFLOWS =       -1152415.65
             --------                                   --------

 TOTAL STORAGE CHANGE =       -1.6744D+07         STORAGE CHANGE =       -1814578.06
       --------------                             --------------
         LAND SURFACE =         582235.16           LAND SURFACE =        -191386.44
            SOIL ZONE =        -324569.77              SOIL ZONE =        -635072.95
     UNSATURATED ZONE =       -2302039.81       UNSATURATED ZONE =         -58725.55
       SATURATED ZONE =       -3785125.08         SATURATED ZONE =        -157566.12
                LAKES =       -1.0914D+07                  LAKES =        -771827.00

 OVERALL BUDGET ERROR =        1.7867D+07           BUDGET ERROR =         662162.42

  ***WARNING, CUMULATIVE VOLUME OFF > 5%
  ***CAUTION, FLUX RATES OFF > 10%

  PERCENT DISCREPANCY =             72.59    PERCENT DISCREPANCY =             44.64



1
 SUMMARY VOLUMETRIC BUDGET FOR GSFLOW 
 DATE: 10 28 1980              CUMULATIVE TIME STEP:      28
 MODFLOW STRESS PERIOD      1     CURRENT TIME STEP:      28     ITERATIONS:       4

 -----------------------------------------------------------------------------------

   CUMULATIVE VOLUMES               L**3   RATES FOR THIS TIME STEP           L**3/T
   ------------------                      ------------------------

                                     IN                                         IN
                                     --                                         --
        PRECIPITATION =        4.0327D+07          PRECIPITATION =                  
           STREAMFLOW =                               STREAMFLOW =                  
     GW BOUNDARY FLOW =                         GW BOUNDARY FLOW =                  


                                    OUT                                        OUT
                                    ---                                        ---
   EVAPOTRANSPIRATION =        1.6422D+07     EVAPOTRANSPIRATION =         291469.11
           STREAMFLOW =        5483162.80             STREAMFLOW =         342843.59
     GW BOUNDARY FLOW =                         GW BOUNDARY FLOW =                  

   INFLOWS - OUTFLOWS =        1.8422D+07     INFLOWS - OUTFLOWS =        -634312.70
             --------                                   --------

 TOTAL STORAGE CHANGE =       -2902026.78         STORAGE CHANGE =        -728224.35
       --------------                             --------------
         LAND SURFACE =        4873656.87           LAND SURFACE =        -161715.81
            SOIL ZONE =        7118648.89              SOIL ZONE =        -251878.17
     UNSATURATED ZONE =       -2600282.03       UNSATURATED ZONE =         -31559.86
       SATURATED ZONE =       -4514130.84         SATURATED ZONE =        -129687.12
                LAKES =       -7779919.66                  LAKES =        -153383.39

 OVERALL BUDGET ERROR =        2.1324D+07           BUDGET ERROR =          93911.65

  ***WARNING, CUMULATIVE VOLUME OFF > 5%
  ***CAUTION, FLUX RATES OFF > 10%

  PERCENT DISCREPANCY =             65.48    PERCENT DISCREPANCY =             13.78



1
 SUMMARY VOLUMETRIC BUDGET FOR GSFLOW 
 DATE: 11 04 1980              CUMULATIVE TIME STEP:      35
 MODFLOW STRESS PERIOD      1     CURRENT TIME STEP:      35     ITERATIONS:       5

 -----------------------------------------------------------------------------------

   CUMULATIVE VOLUMES               L**3   RATES FOR THIS TIME STEP           L**3/T
   ------------------                      ------------------------

                                     IN                                         IN
                                     --                                         --
        PRECIPITATION =        5.0408D+07          PRECIPITATION =                  
           STREAMFLOW =                               STREAMFLOW =                  
     GW BOUNDARY FLOW =                         GW BOUNDARY FLOW =                  


                                    OUT                                        OUT
                                    ---                                        ---
   EVAPOTRANSPIRATION =        2.5820D+07     EVAPOTRANSPIRATION =        1770842.82
           STREAMFLOW =        7932057.52             STREAMFLOW =         350029.94
     GW BOUNDARY FLOW =                         GW BOUNDARY FLOW =                  

   INFLOWS - OUTFLOWS =        1.6656D+07     INFLOWS - OUTFLOWS =       -2120872.76
             --------                                   --------

 TOTAL STORAGE CHANGE =       -9858807.21         STORAGE CHANGE =       -3129769.84
       --------------                             --------------
         LAND SURFACE =         253222.42           LAND SURFACE =         -53384.75
            SOIL ZONE =        4059693.35              SOIL ZONE =       -1773907.08
     UNSATURATED ZONE =       -2543938.49       UNSATURATED ZONE =         -43279.61
       SATURATED ZONE =       -5046196.20         SATURATED ZONE =        -257663.47
                LAKES =       -6581588.28                  LAKES =       -1001534.94

 OVERALL BUDGET ERROR =        2.6515D+07           BUDGET ERROR =        1008897.08

  ***WARNING, CUMULATIVE VOLUME OFF > 5%
  ***CAUTION, FLUX RATES OFF > 10%

  PERCENT DISCREPANCY =             56.40    PERCENT DISCREPANCY =             38.43



1
 SUMMARY VOLUMETRIC BUDGET FOR GSFLOW 
 DATE: 11 11 1980              CUMULATIVE TIME STEP:      42
 MODFLOW STRESS PERIOD      1     CURRENT TIME STEP:      42     ITERATIONS:       5

 -----------------------------------------------------------------------------------

   CUMULATIVE VOLUMES               L**3   RATES FOR THIS TIME STEP           L**3/T
   ------------------                      ------------------------

                                     IN                                         IN
                                     --                                         --
        PRECIPITATION =        7.9485D+07          PRECIPITATION =        3230734.65
           STREAMFLOW =                               STREAMFLOW =                  
     GW BOUNDARY FLOW =                         GW BOUNDARY FLOW =                  


                                    OUT                                        OUT
                                    ---                                        ---
   EVAPOTRANSPIRATION =        3.6038D+07     EVAPOTRANSPIRATION =         870936.47
           STREAMFLOW =        9809681.63             STREAMFLOW =         250091.95
     GW BOUNDARY FLOW =                         GW BOUNDARY FLOW =                  

   INFLOWS - OUTFLOWS =        3.3638D+07     INFLOWS - OUTFLOWS =        2109706.23
             --------                                   --------

 TOTAL STORAGE CHANGE =        -594885.82         STORAGE CHANGE =        1174826.16
       --------------                             --------------
         LAND SURFACE =        3621835.70           LAND SURFACE =         -63920.05
            SOIL ZONE =        8714174.36              SOIL ZONE =         696782.45
     UNSATURATED ZONE =       -2587866.22       UNSATURATED ZONE =          36458.80
       SATURATED ZONE =       -5939270.32         SATURATED ZONE =         -45686.55
                LAKES =       -4403759.35                  LAKES =         551191.50

 OVERALL BUDGET ERROR =        3.4233D+07           BUDGET ERROR =         934880.08

  ***WARNING, CUMULATIVE VOLUME OFF > 5%
  ***CAUTION, FLUX RATES OFF > 10%

  PERCENT DISCREPANCY =             54.37    PERCENT DISCREPANCY =             33.83



1
 SUMMARY VOLUMETRIC BUDGET FOR GSFLOW 
 DATE: 11 18 1980              CUMULATIVE TIME STEP:      49
 MODFLOW STRESS PERIOD      1     CURRENT TIME STEP:      49     ITERATIONS:       3

 -----------------------------------------------------------------------------------

   CUMULATIVE VOLUMES               L**3   RATES FOR THIS TIME STEP           L**3/T
   ------------------                      ------------------------

                                     IN                                         IN
                                     --                                         --
        PRECIPITATION =        8.5946D+07          PRECIPITATION =                  
           STREAMFLOW =                               STREAMFLOW =                  
     GW BOUNDARY FLOW =                         GW BOUNDARY FLOW =                  


                                    OUT                                        OUT
                                    ---                                        ---
   EVAPOTRANSPIRATION =        3.9642D+07     EVAPOTRANSPIRATION =         934446.89
           STREAMFLOW =        1.1638D+07             STREAMFLOW =         312770.00
     GW BOUNDARY FLOW =                         GW BOUNDARY FLOW =                  

   INFLOWS - OUTFLOWS =        3.4666D+07     INFLOWS - OUTFLOWS =       -1247216.89
             --------                                   --------

 TOTAL STORAGE CHANGE =       -1990881.31         STORAGE CHANGE =       -1764225.31
       --------------                             --------------
         LAND SURFACE =        4247190.46           LAND SURFACE =        -429064.21
            SOIL ZONE =        8138744.79              SOIL ZONE =        -641676.09
     UNSATURATED ZONE =       -2536113.72       UNSATURATED ZONE =          15060.19
       SATURATED ZONE =       -7182070.45         SATURATED ZONE =        -172545.39
                LAKES =       -4658632.39                  LAKES =        -535999.81

 OVERALL BUDGET ERROR =        3.6657D+07           BUDGET ERROR =         517008.43

  ***WARNING, CUMULATIVE VOLUME OFF > 5%
  ***CAUTION, FLUX RATES OFF > 10%

  PERCENT DISCREPANCY =             52.66    PERCENT DISCREPANCY =             34.34



1
 SUMMARY VOLUMETRIC BUDGET FOR GSFLOW 
 DATE: 11 25 1980              CUMULATIVE TIME STEP:      56
 MODFLOW STRESS PERIOD      1     CURRENT TIME STEP:      56     ITERATIONS:       3

 -----------------------------------------------------------------------------------

   CUMULATIVE VOLUMES               L**3   RATES FOR THIS TIME STEP           L**3/T
   ------------------                      ------------------------

                                     IN                                         IN
                                     --                                         --
        PRECIPITATION =        8.9177D+07          PRECIPITATION =                  
           STREAMFLOW =                               STREAMFLOW =                  
     GW BOUNDARY FLOW =                         GW BOUNDARY FLOW =                  


                                    OUT                                        OUT
                                    ---                                        ---
   EVAPOTRANSPIRATION =        4.3396D+07     EVAPOTRANSPIRATION =         152325.52
           STREAMFLOW =        1.4055D+07             STREAMFLOW =         437097.75
     GW BOUNDARY FLOW =                         GW BOUNDARY FLOW =                  

   INFLOWS - OUTFLOWS =        3.1727D+07     INFLOWS - OUTFLOWS =        -589423.27
             --------                                   --------

 TOTAL STORAGE CHANGE =       -8015279.26         STORAGE CHANGE =        -718382.86
       --------------                             --------------
         LAND SURFACE =        4128151.39           LAND SURFACE =         -26936.60
            SOIL ZONE =        6207159.13              SOIL ZONE =        -178125.43
     UNSATURATED ZONE =       -2563026.84       UNSATURATED ZONE =         -17379.93
       SATURATED ZONE =       -8427139.63         SATURATED ZONE =        -182337.16
                LAKES =       -7360423.30                  LAKES =        -313603.75

 OVERALL BUDGET ERROR =        3.9742D+07           BUDGET ERROR =         128959.59

  ***WARNING, CUMULATIVE VOLUME OFF > 5%
  ***CAUTION, FLUX RATES OFF > 10%

  PERCENT DISCREPANCY =             51.40    PERCENT DISCREPANCY =             19.72



1
 SUMMARY VOLUMETRIC BUDGET FOR GSFLOW 
 DATE: 12 02 1980              CUMULATIVE TIME STEP:      63
 MODFLOW STRESS PERIOD      1     CURRENT TIME STEP:      63     ITERATIONS:       3

 -----------------------------------------------------------------------------------

   CUMULATIVE VOLUMES               L**3   RATES FOR THIS TIME STEP           L**3/T
   ------------------                      ------------------------

                                     IN                                         IN
                                     --                                         --
        PRECIPITATION =        1.0846D+08          PRECIPITATION =        3198161.89
           STREAMFLOW =                               STREAMFLOW =                  
     GW BOUNDARY FLOW =                         GW BOUNDARY FLOW =                  


                                    OUT                                        OUT
                                    ---                                        ---
   EVAPOTRANSPIRATION =        4.8104D+07     EVAPOTRANSPIRATION =         727118.88
           STREAMFLOW =        1.7318D+07             STREAMFLOW =         437207.22
     GW BOUNDARY FLOW =                         GW BOUNDARY FLOW =                  

   INFLOWS - OUTFLOWS =        4.3042D+07     INFLOWS - OUTFLOWS =        2033835.80
             --------                                   --------

 TOTAL STORAGE CHANGE =         -11980.90         STORAGE CHANGE =        1297828.46
       --------------                             --------------
         LAND SURFACE =        7153033.02           LAND SURFACE =        -909613.46
            SOIL ZONE =        1.0041D+07              SOIL ZONE =        1706875.77
     UNSATURATED ZONE =       -2432012.82       UNSATURATED ZONE =          47821.97
       SATURATED ZONE =       -9199139.70         SATURATED ZONE =         -57395.03
                LAKES =       -5575041.28                  LAKES =         510139.22

 OVERALL BUDGET ERROR =        4.3054D+07           BUDGET ERROR =         736007.34

  ***WARNING, CUMULATIVE VOLUME OFF > 5%
  ***CAUTION, FLUX RATES OFF > 10%

  PERCENT DISCREPANCY =             49.52    PERCENT DISCREPANCY =             26.01



1
 SUMMARY VOLUMETRIC BUDGET FOR GSFLOW 
 DATE: 12 09 1980              CUMULATIVE TIME STEP:      70
 MODFLOW STRESS PERIOD      1     CURRENT TIME STEP:      70     ITERATIONS:       3

 -----------------------------------------------------------------------------------

   CUMULATIVE VOLUMES               L**3   RATES FOR THIS TIME STEP           L**3/T
   ------------------                      ------------------------

                                     IN                                         IN
                                     --                                         --
        PRECIPITATION =        1.7882D+08          PRECIPITATION =                  
           STREAMFLOW =                               STREAMFLOW =                  
     GW BOUNDARY FLOW =                         GW BOUNDARY FLOW =                  


                                    OUT                                        OUT
                                    ---                                        ---
   EVAPOTRANSPIRATION =        4.9607D+07     EVAPOTRANSPIRATION =         240735.91
           STREAMFLOW =        2.0282D+07             STREAMFLOW =         420980.47
     GW BOUNDARY FLOW =                         GW BOUNDARY FLOW =                  

   INFLOWS - OUTFLOWS =        1.0893D+08     INFLOWS - OUTFLOWS =        -661716.38
             --------                                   --------

 TOTAL STORAGE CHANGE =        6.4545D+07         STORAGE CHANGE =        -813475.85
       --------------                             --------------
         LAND SURFACE =        5.1471D+07           LAND SURFACE =        -232729.71
            SOIL ZONE =        1.3029D+07              SOIL ZONE =        -135646.91
     UNSATURATED ZONE =       -2045118.83       UNSATURATED ZONE =          32760.89
       SATURATED ZONE =       -1.0166D+07         SATURATED ZONE =        -203648.44
                LAKES =        1.2256D+07                  LAKES =        -274211.69

 OVERALL BUDGET ERROR =        4.4389D+07           BUDGET ERROR =         151759.47

  ***WARNING, CUMULATIVE VOLUME OFF > 5%
  ***CAUTION, FLUX RATES OFF > 10%

  PERCENT DISCREPANCY =             28.34    PERCENT DISCREPANCY =             20.57



1
 SUMMARY VOLUMETRIC BUDGET FOR GSFLOW 
 DATE: 12 16 1980              CUMULATIVE TIME STEP:      77
 MODFLOW STRESS PERIOD      1     CURRENT TIME STEP:      77     ITERATIONS:       4

 -----------------------------------------------------------------------------------

   CUMULATIVE VOLUMES               L**3   RATES FOR THIS TIME STEP           L**3/T
   ------------------                      ------------------------

                                     IN                                         IN
                                     --                                         --
        PRECIPITATION =        1.7882D+08          PRECIPITATION =                  
           STREAMFLOW =                               STREAMFLOW =                  
     GW BOUNDARY FLOW =                         GW BOUNDARY FLOW =                  


                                    OUT                                        OUT
                                    ---                                        ---
   EVAPOTRANSPIRATION =        5.3602D+07     EVAPOTRANSPIRATION =         883168.78
           STREAMFLOW =        2.3263D+07             STREAMFLOW =         430698.81
     GW BOUNDARY FLOW =                         GW BOUNDARY FLOW =                  

   INFLOWS - OUTFLOWS =        1.0196D+08     INFLOWS - OUTFLOWS =       -1313867.59
             --------                                   --------

 TOTAL STORAGE CHANGE =        5.4939D+07         STORAGE CHANGE =       -1919952.48
       --------------                             --------------
         LAND SURFACE =        4.7223D+07           LAND SURFACE =       -1206516.26
            SOIL ZONE =        1.2672D+07              SOIL ZONE =         211486.35
     UNSATURATED ZONE =       -1999557.45       UNSATURATED ZONE =          -8439.08
       SATURATED ZONE =       -1.1498D+07         SATURATED ZONE =        -164980.61
                LAKES =        8541618.30                  LAKES =        -751502.88

 OVERALL BUDGET ERROR =        4.7019D+07           BUDGET ERROR =         606084.89

  ***WARNING, CUMULATIVE VOLUME OFF > 5%
  ***CAUTION, FLUX RATES OFF > 10%

  PERCENT DISCREPANCY =             30.27    PERCENT DISCREPANCY =             37.48



1
 SUMMARY VOLUMETRIC BUDGET FOR GSFLOW 
 DATE: 12 23 1980              CUMULATIVE TIME STEP:      84
 MODFLOW STRESS PERIOD      1     CURRENT TIME STEP:      84     ITERATIONS:       6

 -----------------------------------------------------------------------------------

   CUMULATIVE VOLUMES               L**3   RATES FOR THIS TIME STEP           L**3/T
   ------------------                      ------------------------

                                     IN                                         IN
                                     --                                         --
        PRECIPITATION =        1.8522D+08          PRECIPITATION =        3198161.89
           STREAMFLOW =                               STREAMFLOW =                  
     GW BOUNDARY FLOW =                         GW BOUNDARY FLOW =                  


                                    OUT                                        OUT
                                    ---                                        ---
   EVAPOTRANSPIRATION =        5.8675D+07     EVAPOTRANSPIRATION =         637342.93
           STREAMFLOW =        2.6316D+07             STREAMFLOW =         443565.50
     GW BOUNDARY FLOW =                         GW BOUNDARY FLOW =                  

   INFLOWS - OUTFLOWS =        1.0023D+08     INFLOWS - OUTFLOWS =        2117253.47
             --------                                   --------

 TOTAL STORAGE CHANGE =        4.9660D+07         STORAGE CHANGE =        1592967.12
       --------------                             --------------
         LAND SURFACE =        4.2129D+07           LAND SURFACE =        -245970.29
            SOIL ZONE =        1.5541D+07              SOIL ZONE =        1323614.07
     UNSATURATED ZONE =       -1877639.11       UNSATURATED ZONE =          62710.91
       SATURATED ZONE =       -1.2437D+07         SATURATED ZONE =         -59110.95
                LAKES =        6303880.80                  LAKES =         511723.38

 OVERALL BUDGET ERROR =        5.0570D+07           BUDGET ERROR =         524286.35

  ***WARNING, CUMULATIVE VOLUME OFF > 5%
  ***CAUTION, FLUX RATES OFF > 10%

  PERCENT DISCREPANCY =             31.62    PERCENT DISCREPANCY =             17.86



1
 SUMMARY VOLUMETRIC BUDGET FOR GSFLOW 
 DATE: 12 30 1980              CUMULATIVE TIME STEP:      91
 MODFLOW STRESS PERIOD      1     CURRENT TIME STEP:      91     ITERATIONS:       4

 -----------------------------------------------------------------------------------

   CUMULATIVE VOLUMES               L**3   RATES FOR THIS TIME STEP           L**3/T
   ------------------                      ------------------------

                                     IN                                         IN
                                     --                                         --
        PRECIPITATION =        1.8522D+08          PRECIPITATION =                  
           STREAMFLOW =                               STREAMFLOW =                  
     GW BOUNDARY FLOW =                         GW BOUNDARY FLOW =                  


                                    OUT                                        OUT
                                    ---                                        ---
   EVAPOTRANSPIRATION =        6.5254D+07     EVAPOTRANSPIRATION =         814820.70
           STREAMFLOW =        2.9399D+07             STREAMFLOW =         445279.69
     GW BOUNDARY FLOW =                         GW BOUNDARY FLOW =                  

   INFLOWS - OUTFLOWS =        9.0566D+07     INFLOWS - OUTFLOWS =       -1260100.39
             --------                                   --------

 TOTAL STORAGE CHANGE =        3.6141D+07         STORAGE CHANGE =       -1714150.42
       --------------                             --------------
         LAND SURFACE =        3.5990D+07           LAND SURFACE =        -559081.80
            SOIL ZONE =        1.3726D+07              SOIL ZONE =        -383724.56
     UNSATURATED ZONE =       -1761333.17       UNSATURATED ZONE =           9543.81
       SATURATED ZONE =       -1.3505D+07         SATURATED ZONE =        -164154.62
                LAKES =        1691620.33                  LAKES =        -616733.25

 OVERALL BUDGET ERROR =        5.4425D+07           BUDGET ERROR =         454050.03

  ***WARNING, CUMULATIVE VOLUME OFF > 5%
  ***CAUTION, FLUX RATES OFF > 10%

  PERCENT DISCREPANCY =             34.44    PERCENT DISCREPANCY =             30.53



1
 SUMMARY VOLUMETRIC BUDGET FOR GSFLOW 
 DATE: 01 06 1981              CUMULATIVE TIME STEP:      98
 MODFLOW STRESS PERIOD      1     CURRENT TIME STEP:      98     ITERATIONS:      24

 -----------------------------------------------------------------------------------

   CUMULATIVE VOLUMES               L**3   RATES FOR THIS TIME STEP           L**3/T
   ------------------                      ------------------------

                                     IN                                         IN
                                     --                                         --
        PRECIPITATION =        2.0923D+08          PRECIPITATION =                  
           STREAMFLOW =                               STREAMFLOW =                  
     GW BOUNDARY FLOW =                         GW BOUNDARY FLOW =                  


                                    OUT                                        OUT
                                    ---                                        ---
   EVAPOTRANSPIRATION =        7.0246D+07     EVAPOTRANSPIRATION =         700500.44
           STREAMFLOW =        3.2519D+07             STREAMFLOW =         445540.78
     GW BOUNDARY FLOW =                         GW BOUNDARY FLOW =                  

   INFLOWS - OUTFLOWS =        1.0646D+08     INFLOWS - OUTFLOWS =       -1146041.22
             --------                                   --------

 TOTAL STORAGE CHANGE =        4.8937D+07         STORAGE CHANGE =       -1610650.96
       --------------                             --------------
         LAND SURFACE =        4.1576D+07           LAND SURFACE =        -362260.72
            SOIL ZONE =        1.6932D+07              SOIL ZONE =        -552103.08
     UNSATURATED ZONE =       -1372293.50       UNSATURATED ZONE =          55103.56
       SATURATED ZONE =       -1.4194D+07         SATURATED ZONE =        -187284.22
                LAKES =        5995445.83                  LAKES =        -564106.50

 OVERALL BUDGET ERROR =        5.7523D+07           BUDGET ERROR =         464609.74

  ***WARNING, CUMULATIVE VOLUME OFF > 5%
  ***CAUTION, FLUX RATES OFF > 10%

  PERCENT DISCREPANCY =             31.87    PERCENT DISCREPANCY =             33.71



1
 SUMMARY VOLUMETRIC BUDGET FOR GSFLOW 
 DATE: 01 13 1981              CUMULATIVE TIME STEP:     105
 MODFLOW STRESS PERIOD      1     CURRENT TIME STEP:     105     ITERATIONS:       4

 -----------------------------------------------------------------------------------

   CUMULATIVE VOLUMES               L**3   RATES FOR THIS TIME STEP           L**3/T
   ------------------                      ------------------------

                                     IN                                         IN
                                     --                                         --
        PRECIPITATION =        2.1223D+08          PRECIPITATION =                  
           STREAMFLOW =                               STREAMFLOW =                  
     GW BOUNDARY FLOW =                         GW BOUNDARY FLOW =                  


                                    OUT                                        OUT
                                    ---                                        ---
   EVAPOTRANSPIRATION =        7.5608D+07     EVAPOTRANSPIRATION =         908762.06
           STREAMFLOW =        3.5650D+07             STREAMFLOW =         457520.28
     GW BOUNDARY FLOW =                         GW BOUNDARY FLOW =                  

   INFLOWS - OUTFLOWS =        1.0097D+08     INFLOWS - OUTFLOWS =       -1366282.34
             --------                                   --------

 TOTAL STORAGE CHANGE =        4.0274D+07         STORAGE CHANGE =       -1893573.30
       --------------                             --------------
         LAND SURFACE =        4.0089D+07           LAND SURFACE =        -485861.71
            SOIL ZONE =        1.4439D+07              SOIL ZONE =        -490836.75
     UNSATURATED ZONE =       -1274151.40       UNSATURATED ZONE =          -8504.91
       SATURATED ZONE =       -1.5426D+07         SATURATED ZONE =        -174004.88
                LAKES =        2446109.37                  LAKES =        -734365.06

 OVERALL BUDGET ERROR =        6.0694D+07           BUDGET ERROR =         527290.96

  ***WARNING, CUMULATIVE VOLUME OFF > 5%
  ***CAUTION, FLUX RATES OFF > 10%

  PERCENT DISCREPANCY =             33.37    PERCENT DISCREPANCY =             32.35



1
 SUMMARY VOLUMETRIC BUDGET FOR GSFLOW 
 DATE: 01 20 1981              CUMULATIVE TIME STEP:     112
 MODFLOW STRESS PERIOD      1     CURRENT TIME STEP:     112     ITERATIONS:       9

 -----------------------------------------------------------------------------------

   CUMULATIVE VOLUMES               L**3   RATES FOR THIS TIME STEP           L**3/T
   ------------------                      ------------------------

                                     IN                                         IN
                                     --                                         --
        PRECIPITATION =        2.2423D+08          PRECIPITATION =        6001392.59
           STREAMFLOW =                               STREAMFLOW =                  
     GW BOUNDARY FLOW =                         GW BOUNDARY FLOW =                  


                                    OUT                                        OUT
                                    ---                                        ---
   EVAPOTRANSPIRATION =        8.2778D+07     EVAPOTRANSPIRATION =        1169485.16
           STREAMFLOW =        3.9241D+07             STREAMFLOW =         485521.66
     GW BOUNDARY FLOW =                         GW BOUNDARY FLOW =                  

   INFLOWS - OUTFLOWS =        1.0221D+08     INFLOWS - OUTFLOWS =        4346385.76
             --------                                   --------

 TOTAL STORAGE CHANGE =        3.7220D+07         STORAGE CHANGE =        3533498.76
       --------------                             --------------
         LAND SURFACE =        3.7521D+07           LAND SURFACE =         673026.77
            SOIL ZONE =        1.6056D+07              SOIL ZONE =        1354436.78
     UNSATURATED ZONE =       -1077846.67       UNSATURATED ZONE =          97927.26
       SATURATED ZONE =       -1.6156D+07         SATURATED ZONE =          56796.08
                LAKES =         875710.75                  LAKES =        1351311.88

 OVERALL BUDGET ERROR =        6.4990D+07           BUDGET ERROR =         812887.01

  ***WARNING, CUMULATIVE VOLUME OFF > 5%
  ***CAUTION, FLUX RATES OFF > 10%

  PERCENT DISCREPANCY =             33.90    PERCENT DISCREPANCY =             14.53



1
 SUMMARY VOLUMETRIC BUDGET FOR GSFLOW 
 DATE: 01 27 1981              CUMULATIVE TIME STEP:     119
 MODFLOW STRESS PERIOD      1     CURRENT TIME STEP:     119     ITERATIONS:       3

 -----------------------------------------------------------------------------------

   CUMULATIVE VOLUMES               L**3   RATES FOR THIS TIME STEP           L**3/T
   ------------------                      ------------------------

                                     IN                                         IN
                                     --                                         --
        PRECIPITATION =        3.3525D+08          PRECIPITATION =        6.0014D+07
           STREAMFLOW =                               STREAMFLOW =                  
     GW BOUNDARY FLOW =                         GW BOUNDARY FLOW =                  


                                    OUT                                        OUT
                                    ---                                        ---
   EVAPOTRANSPIRATION =        8.8450D+07     EVAPOTRANSPIRATION =         410891.29
           STREAMFLOW =        4.1752D+07             STREAMFLOW =         345812.06
     GW BOUNDARY FLOW =                         GW BOUNDARY FLOW =                  

   INFLOWS - OUTFLOWS =        2.0505D+08     INFLOWS - OUTFLOWS =        5.9257D+07
             --------                                   --------

 TOTAL STORAGE CHANGE =        1.3554D+08         STORAGE CHANGE =        5.8423D+07
       --------------                             --------------
         LAND SURFACE =        1.0747D+08           LAND SURFACE =        4.1072D+07
            SOIL ZONE =        1.7896D+07              SOIL ZONE =        1620554.72
     UNSATURATED ZONE =        -582022.08       UNSATURATED ZONE =          99654.52
       SATURATED ZONE =       -1.6861D+07         SATURATED ZONE =         -41276.11
                LAKES =        2.7619D+07                  LAKES =        1.5671D+07

 OVERALL BUDGET ERROR =        6.9515D+07           BUDGET ERROR =         834438.05

  ***WARNING, CUMULATIVE VOLUME OFF > 5%

  PERCENT DISCREPANCY =             23.13    PERCENT DISCREPANCY =              1.40



1
 SUMMARY VOLUMETRIC BUDGET FOR GSFLOW 
 DATE: 02 03 1981              CUMULATIVE TIME STEP:     126
 MODFLOW STRESS PERIOD      1     CURRENT TIME STEP:     126     ITERATIONS:      14

 -----------------------------------------------------------------------------------

   CUMULATIVE VOLUMES               L**3   RATES FOR THIS TIME STEP           L**3/T
   ------------------                      ------------------------

                                     IN                                         IN
                                     --                                         --
        PRECIPITATION =        4.0137D+08          PRECIPITATION =                  
           STREAMFLOW =                               STREAMFLOW =                  
     GW BOUNDARY FLOW =                         GW BOUNDARY FLOW =                  


                                    OUT                                        OUT
                                    ---                                        ---
   EVAPOTRANSPIRATION =        9.0610D+07     EVAPOTRANSPIRATION =         534411.69
           STREAMFLOW =        4.4232D+07             STREAMFLOW =         354891.72
     GW BOUNDARY FLOW =                         GW BOUNDARY FLOW =                  

   INFLOWS - OUTFLOWS =        2.6652D+08     INFLOWS - OUTFLOWS =        -889303.41
             --------                                   --------

 TOTAL STORAGE CHANGE =        1.9516D+08         STORAGE CHANGE =       -1285593.00
       --------------                             --------------
         LAND SURFACE =        1.5382D+08           LAND SURFACE =        -497697.44
            SOIL ZONE =        1.6926D+07              SOIL ZONE =        -133844.95
     UNSATURATED ZONE =        -284291.73       UNSATURATED ZONE =           7583.94
       SATURATED ZONE =       -1.8053D+07         SATURATED ZONE =        -174298.33
                LAKES =        4.2752D+07                  LAKES =        -487336.22

 OVERALL BUDGET ERROR =        7.1365D+07           BUDGET ERROR =         396289.60

  ***WARNING, CUMULATIVE VOLUME OFF > 5%
  ***CAUTION, FLUX RATES OFF > 10%

  PERCENT DISCREPANCY =             19.52    PERCENT DISCREPANCY =             36.44



1
 SUMMARY VOLUMETRIC BUDGET FOR GSFLOW 
 DATE: 02 10 1981              CUMULATIVE TIME STEP:     133
 MODFLOW STRESS PERIOD      1     CURRENT TIME STEP:     133     ITERATIONS:       8

 -----------------------------------------------------------------------------------

   CUMULATIVE VOLUMES               L**3   RATES FOR THIS TIME STEP           L**3/T
   ------------------                      ------------------------

                                     IN                                         IN
                                     --                                         --
        PRECIPITATION =        4.1375D+08          PRECIPITATION =        3095932.43
           STREAMFLOW =                               STREAMFLOW =                  
     GW BOUNDARY FLOW =                         GW BOUNDARY FLOW =                  


                                    OUT                                        OUT
                                    ---                                        ---
   EVAPOTRANSPIRATION =        9.3815D+07     EVAPOTRANSPIRATION =         337092.88
           STREAMFLOW =        4.6626D+07             STREAMFLOW =         340304.81
     GW BOUNDARY FLOW =                         GW BOUNDARY FLOW =                  

   INFLOWS - OUTFLOWS =        2.7331D+08     INFLOWS - OUTFLOWS =        2418534.74
             --------                                   --------

 TOTAL STORAGE CHANGE =        1.9953D+08         STORAGE CHANGE =        2134526.86
       --------------                             --------------
         LAND SURFACE =        1.5941D+08           LAND SURFACE =        1678271.41
            SOIL ZONE =        1.6822D+07              SOIL ZONE =         185604.23
     UNSATURATED ZONE =        -357268.39       UNSATURATED ZONE =         -13887.60
       SATURATED ZONE =       -1.9185D+07         SATURATED ZONE =        -147381.16
                LAKES =        4.2835D+07                  LAKES =         431919.97

 OVERALL BUDGET ERROR =        7.3783D+07           BUDGET ERROR =         284007.88

  ***WARNING, CUMULATIVE VOLUME OFF > 5%
  ***WARNING, FLUX RATES OFF > 3%

  PERCENT DISCREPANCY =             19.58    PERCENT DISCREPANCY =              9.61



1
 SUMMARY VOLUMETRIC BUDGET FOR GSFLOW 
 DATE: 02 17 1981              CUMULATIVE TIME STEP:     140
 MODFLOW STRESS PERIOD      1     CURRENT TIME STEP:     140     ITERATIONS:       7

 -----------------------------------------------------------------------------------

   CUMULATIVE VOLUMES               L**3   RATES FOR THIS TIME STEP           L**3/T
   ------------------                      ------------------------

                                     IN                                         IN
                                     --                                         --
        PRECIPITATION =        4.6328D+08          PRECIPITATION =                  
           STREAMFLOW =                               STREAMFLOW =                  
     GW BOUNDARY FLOW =                         GW BOUNDARY FLOW =                  


                                    OUT                                        OUT
                                    ---                                        ---
   EVAPOTRANSPIRATION =        1.0055D+08     EVAPOTRANSPIRATION =        1582290.72
           STREAMFLOW =        4.8976D+07             STREAMFLOW =         285389.09
     GW BOUNDARY FLOW =                         GW BOUNDARY FLOW =                  

   INFLOWS - OUTFLOWS =        3.1375D+08     INFLOWS - OUTFLOWS =       -1867679.81
             --------                                   --------

 TOTAL STORAGE CHANGE =        2.3459D+08         STORAGE CHANGE =       -2933345.22
       --------------                             --------------
         LAND SURFACE =        1.7506D+08           LAND SURFACE =       -2254149.30
            SOIL ZONE =        2.3375D+07              SOIL ZONE =         -33635.26
     UNSATURATED ZONE =         228807.46       UNSATURATED ZONE =          89515.47
       SATURATED ZONE =       -1.9442D+07         SATURATED ZONE =        -119602.88
                LAKES =        5.5371D+07                  LAKES =        -615473.25

 OVERALL BUDGET ERROR =        7.9165D+07           BUDGET ERROR =        1065665.40

  ***WARNING, CUMULATIVE VOLUME OFF > 5%
  ***CAUTION, FLUX RATES OFF > 10%

  PERCENT DISCREPANCY =             18.68    PERCENT DISCREPANCY =             44.39



1
 SUMMARY VOLUMETRIC BUDGET FOR GSFLOW 
 DATE: 02 24 1981              CUMULATIVE TIME STEP:     147
 MODFLOW STRESS PERIOD      1     CURRENT TIME STEP:     147     ITERATIONS:       4

 -----------------------------------------------------------------------------------

   CUMULATIVE VOLUMES               L**3   RATES FOR THIS TIME STEP           L**3/T
   ------------------                      ------------------------

                                     IN                                         IN
                                     --                                         --
        PRECIPITATION =        4.8805D+08          PRECIPITATION =        1.8576D+07
           STREAMFLOW =                               STREAMFLOW =                  
     GW BOUNDARY FLOW =                         GW BOUNDARY FLOW =                  


                                    OUT                                        OUT
                                    ---                                        ---
   EVAPOTRANSPIRATION =        1.0909D+08     EVAPOTRANSPIRATION =         838823.08
           STREAMFLOW =        5.0059D+07             STREAMFLOW =         143123.81
     GW BOUNDARY FLOW =                         GW BOUNDARY FLOW =                  

   INFLOWS - OUTFLOWS =        3.2890D+08     INFLOWS - OUTFLOWS =        1.7594D+07
             --------                                   --------

 TOTAL STORAGE CHANGE =        2.4399D+08         STORAGE CHANGE =        1.6952D+07
       --------------                             --------------
         LAND SURFACE =        1.7597D+08           LAND SURFACE =        1.1072D+07
            SOIL ZONE =        2.5721D+07              SOIL ZONE =         477566.34
     UNSATURATED ZONE =       -1578148.89       UNSATURATED ZONE =         267796.89
       SATURATED ZONE =       -1.7942D+07         SATURATED ZONE =          17956.25
                LAKES =        6.1825D+07                  LAKES =        5116281.50

 OVERALL BUDGET ERROR =        8.4904D+07           BUDGET ERROR =         641960.68

  ***WARNING, CUMULATIVE VOLUME OFF > 5%
  ***WARNING, FLUX RATES OFF > 3%

  PERCENT DISCREPANCY =             19.05    PERCENT DISCREPANCY =              3.52



1
 SUMMARY VOLUMETRIC BUDGET FOR GSFLOW 
 DATE: 03 03 1981              CUMULATIVE TIME STEP:     154
 MODFLOW STRESS PERIOD      1     CURRENT TIME STEP:     154     ITERATIONS:      16

 -----------------------------------------------------------------------------------

   CUMULATIVE VOLUMES               L**3   RATES FOR THIS TIME STEP           L**3/T
   ------------------                      ------------------------

                                     IN                                         IN
                                     --                                         --
        PRECIPITATION =        5.0056D+08          PRECIPITATION =                  
           STREAMFLOW =                               STREAMFLOW =                  
     GW BOUNDARY FLOW =                         GW BOUNDARY FLOW =                  


                                    OUT                                        OUT
                                    ---                                        ---
   EVAPOTRANSPIRATION =        1.1426D+08     EVAPOTRANSPIRATION =        1343324.13
           STREAMFLOW =        5.1106D+07             STREAMFLOW =         161574.73
     GW BOUNDARY FLOW =                         GW BOUNDARY FLOW =                  

   INFLOWS - OUTFLOWS =        3.3520D+08     INFLOWS - OUTFLOWS =       -1504898.86
             --------                                   --------

 TOTAL STORAGE CHANGE =        2.4642D+08         STORAGE CHANGE =       -2415407.78
       --------------                             --------------
         LAND SURFACE =        1.7885D+08           LAND SURFACE =       -1096145.58
            SOIL ZONE =        2.3959D+07              SOIL ZONE =        -357364.41
     UNSATURATED ZONE =        -937712.07       UNSATURATED ZONE =         -18569.59
       SATURATED ZONE =       -1.9149D+07         SATURATED ZONE =        -179090.14
                LAKES =        6.3701D+07                  LAKES =        -764238.06

 OVERALL BUDGET ERROR =        8.8776D+07           BUDGET ERROR =         910508.92

  ***WARNING, CUMULATIVE VOLUME OFF > 5%
  ***CAUTION, FLUX RATES OFF > 10%

  PERCENT DISCREPANCY =             19.46    PERCENT DISCREPANCY =             46.45



1
 SUMMARY VOLUMETRIC BUDGET FOR GSFLOW 
 DATE: 03 10 1981              CUMULATIVE TIME STEP:     161
 MODFLOW STRESS PERIOD      1     CURRENT TIME STEP:     161     ITERATIONS:      42

 -----------------------------------------------------------------------------------

   CUMULATIVE VOLUMES               L**3   RATES FOR THIS TIME STEP           L**3/T
   ------------------                      ------------------------

                                     IN                                         IN
                                     --                                         --
        PRECIPITATION =        5.0378D+08          PRECIPITATION =        3221591.34
           STREAMFLOW =                               STREAMFLOW =                  
     GW BOUNDARY FLOW =                         GW BOUNDARY FLOW =                  


                                    OUT                                        OUT
                                    ---                                        ---
   EVAPOTRANSPIRATION =        1.2492D+08     EVAPOTRANSPIRATION =        1298132.13
           STREAMFLOW =        5.2250D+07             STREAMFLOW =         163871.33
     GW BOUNDARY FLOW =                         GW BOUNDARY FLOW =                  

   INFLOWS - OUTFLOWS =        3.2661D+08     INFLOWS - OUTFLOWS =        1759587.88
             --------                                   --------

 TOTAL STORAGE CHANGE =        2.3074D+08         STORAGE CHANGE =        1057073.38
       --------------                             --------------
         LAND SURFACE =        1.6676D+08           LAND SURFACE =       -1607197.08
            SOIL ZONE =        2.4476D+07              SOIL ZONE =        1219552.74
     UNSATURATED ZONE =       -1128007.72       UNSATURATED ZONE =          69918.90
       SATURATED ZONE =       -1.9798D+07         SATURATED ZONE =          97047.20
                LAKES =        6.0435D+07                  LAKES =        1277751.62

 OVERALL BUDGET ERROR =        9.5866D+07           BUDGET ERROR =         702514.49

  ***WARNING, CUMULATIVE VOLUME OFF > 5%
  ***CAUTION, FLUX RATES OFF > 10%

  PERCENT DISCREPANCY =             21.03    PERCENT DISCREPANCY =             24.48



1
 SUMMARY VOLUMETRIC BUDGET FOR GSFLOW 
 DATE: 03 17 1981              CUMULATIVE TIME STEP:     168
 MODFLOW STRESS PERIOD      1     CURRENT TIME STEP:     168     ITERATIONS:      33

 -----------------------------------------------------------------------------------

   CUMULATIVE VOLUMES               L**3   RATES FOR THIS TIME STEP           L**3/T
   ------------------                      ------------------------

                                     IN                                         IN
                                     --                                         --
        PRECIPITATION =        5.1345D+08          PRECIPITATION =        3221591.34
           STREAMFLOW =                               STREAMFLOW =                  
     GW BOUNDARY FLOW =                         GW BOUNDARY FLOW =                  


                                    OUT                                        OUT
                                    ---                                        ---
   EVAPOTRANSPIRATION =        1.3388D+08     EVAPOTRANSPIRATION =         664992.84
           STREAMFLOW =        5.3446D+07             STREAMFLOW =         174561.23
     GW BOUNDARY FLOW =                         GW BOUNDARY FLOW =                  

   INFLOWS - OUTFLOWS =        3.2612D+08     INFLOWS - OUTFLOWS =        2382037.26
             --------                                   --------

 TOTAL STORAGE CHANGE =        2.2397D+08         STORAGE CHANGE =        1945590.16
       --------------                             --------------
         LAND SURFACE =        1.6298D+08           LAND SURFACE =        1567731.45
            SOIL ZONE =        2.3599D+07              SOIL ZONE =           4886.72
     UNSATURATED ZONE =       -1093439.53       UNSATURATED ZONE =        -136831.65
       SATURATED ZONE =       -2.0596D+07         SATURATED ZONE =         -11317.20
                LAKES =        5.9083D+07                  LAKES =         521120.84

 OVERALL BUDGET ERROR =        1.0215D+08           BUDGET ERROR =         436447.10

  ***WARNING, CUMULATIVE VOLUME OFF > 5%
  ***CAUTION, FLUX RATES OFF > 10%

  PERCENT DISCREPANCY =             22.09    PERCENT DISCREPANCY =             14.53



1
 SUMMARY VOLUMETRIC BUDGET FOR GSFLOW 
 DATE: 03 24 1981              CUMULATIVE TIME STEP:     175
 MODFLOW STRESS PERIOD      1     CURRENT TIME STEP:     175     ITERATIONS:      18

 -----------------------------------------------------------------------------------

   CUMULATIVE VOLUMES               L**3   RATES FOR THIS TIME STEP           L**3/T
   ------------------                      ------------------------

                                     IN                                         IN
                                     --                                         --
        PRECIPITATION =        5.7144D+08          PRECIPITATION =        6443182.67
           STREAMFLOW =                               STREAMFLOW =                  
     GW BOUNDARY FLOW =                         GW BOUNDARY FLOW =                  


                                    OUT                                        OUT
                                    ---                                        ---
   EVAPOTRANSPIRATION =        1.4214D+08     EVAPOTRANSPIRATION =        1085706.64
           STREAMFLOW =        5.4582D+07             STREAMFLOW =         164600.05
     GW BOUNDARY FLOW =                         GW BOUNDARY FLOW =                  

   INFLOWS - OUTFLOWS =        3.7471D+08     INFLOWS - OUTFLOWS =        5192875.98
             --------                                   --------

 TOTAL STORAGE CHANGE =        2.6612D+08         STORAGE CHANGE =        4475047.18
       --------------                             --------------
         LAND SURFACE =        1.9121D+08           LAND SURFACE =        1648492.10
            SOIL ZONE =        2.5716D+07              SOIL ZONE =         746833.49
     UNSATURATED ZONE =        -742739.37       UNSATURATED ZONE =         103289.11
       SATURATED ZONE =       -2.1177D+07         SATURATED ZONE =          40920.98
                LAKES =        7.1110D+07                  LAKES =        1935511.50

 OVERALL BUDGET ERROR =        1.0859D+08           BUDGET ERROR =         717828.80

  ***WARNING, CUMULATIVE VOLUME OFF > 5%
  ***CAUTION, FLUX RATES OFF > 10%

  PERCENT DISCREPANCY =             21.00    PERCENT DISCREPANCY =             11.80



1
 SUMMARY VOLUMETRIC BUDGET FOR GSFLOW 
 DATE: 03 31 1981              CUMULATIVE TIME STEP:     182
 MODFLOW STRESS PERIOD      1     CURRENT TIME STEP:     182     ITERATIONS:       7

 -----------------------------------------------------------------------------------

   CUMULATIVE VOLUMES               L**3   RATES FOR THIS TIME STEP           L**3/T
   ------------------                      ------------------------

                                     IN                                         IN
                                     --                                         --
        PRECIPITATION =        6.3587D+08          PRECIPITATION =        6443182.67
           STREAMFLOW =                               STREAMFLOW =                  
     GW BOUNDARY FLOW =                         GW BOUNDARY FLOW =                  


                                    OUT                                        OUT
                                    ---                                        ---
   EVAPOTRANSPIRATION =        1.5088D+08     EVAPOTRANSPIRATION =         738489.55
           STREAMFLOW =        5.5754D+07             STREAMFLOW =         154067.55
     GW BOUNDARY FLOW =                         GW BOUNDARY FLOW =                  

   INFLOWS - OUTFLOWS =        4.2923D+08     INFLOWS - OUTFLOWS =        5550625.57
             --------                                   --------

 TOTAL STORAGE CHANGE =        3.1407D+08         STORAGE CHANGE =        5043283.90
       --------------                             --------------
         LAND SURFACE =        2.1723D+08           LAND SURFACE =        2850911.63
            SOIL ZONE =        2.7308D+07              SOIL ZONE =         452327.60
     UNSATURATED ZONE =       -4424119.43       UNSATURATED ZONE =         130971.95
       SATURATED ZONE =       -1.7950D+07         SATURATED ZONE =        -109136.40
                LAKES =        9.1902D+07                  LAKES =        1718209.12

 OVERALL BUDGET ERROR =        1.1517D+08           BUDGET ERROR =         507341.67

  ***WARNING, CUMULATIVE VOLUME OFF > 5%
  ***WARNING, FLUX RATES OFF > 3%

  PERCENT DISCREPANCY =             19.92    PERCENT DISCREPANCY =              8.20



1
 SUMMARY VOLUMETRIC BUDGET FOR GSFLOW 
 DATE: 04 07 1981              CUMULATIVE TIME STEP:     189
 MODFLOW STRESS PERIOD      1     CURRENT TIME STEP:     189     ITERATIONS:      36

 -----------------------------------------------------------------------------------

   CUMULATIVE VOLUMES               L**3   RATES FOR THIS TIME STEP           L**3/T
   ------------------                      ------------------------

                                     IN                                         IN
                                     --                                         --
        PRECIPITATION =        6.5328D+08          PRECIPITATION =                  
           STREAMFLOW =                               STREAMFLOW =                  
     GW BOUNDARY FLOW =                         GW BOUNDARY FLOW =                  


                                    OUT                                        OUT
                                    ---                                        ---
   EVAPOTRANSPIRATION =        1.6492D+08     EVAPOTRANSPIRATION =        2485618.81
           STREAMFLOW =        5.6883D+07             STREAMFLOW =         203099.91
     GW BOUNDARY FLOW =                         GW BOUNDARY FLOW =                  

   INFLOWS - OUTFLOWS =        4.3148D+08     INFLOWS - OUTFLOWS =       -2688718.72
             --------                                   --------

 TOTAL STORAGE CHANGE =        3.0622D+08         STORAGE CHANGE =       -4604459.28
       --------------                             --------------
         LAND SURFACE =        1.9636D+08           LAND SURFACE =       -6815335.08
            SOIL ZONE =        2.8265D+07              SOIL ZONE =          67714.64
     UNSATURATED ZONE =       -3259338.87       UNSATURATED ZONE =         235765.44
       SATURATED ZONE =       -1.6896D+07         SATURATED ZONE =         271676.22
                LAKES =        1.0175D+08                  LAKES =        1635719.50

 OVERALL BUDGET ERROR =        1.2526D+08           BUDGET ERROR =        1915740.56

  ***WARNING, CUMULATIVE VOLUME OFF > 5%
  ***CAUTION, FLUX RATES OFF > 10%

  PERCENT DISCREPANCY =             21.21    PERCENT DISCREPANCY =             52.54



1
 SUMMARY VOLUMETRIC BUDGET FOR GSFLOW 
 DATE: 04 14 1981              CUMULATIVE TIME STEP:     196
 MODFLOW STRESS PERIOD      1     CURRENT TIME STEP:     196     ITERATIONS:      29

 -----------------------------------------------------------------------------------

   CUMULATIVE VOLUMES               L**3   RATES FOR THIS TIME STEP           L**3/T
   ------------------                      ------------------------

                                     IN                                         IN
                                     --                                         --
        PRECIPITATION =        6.5328D+08          PRECIPITATION =                  
           STREAMFLOW =                               STREAMFLOW =                  
     GW BOUNDARY FLOW =                         GW BOUNDARY FLOW =                  


                                    OUT                                        OUT
                                    ---                                        ---
   EVAPOTRANSPIRATION =        1.8309D+08     EVAPOTRANSPIRATION =        3257834.77
           STREAMFLOW =        5.8129D+07             STREAMFLOW =         172000.03
     GW BOUNDARY FLOW =                         GW BOUNDARY FLOW =                  

   INFLOWS - OUTFLOWS =        4.1207D+08     INFLOWS - OUTFLOWS =       -3429834.80
             --------                                   --------

 TOTAL STORAGE CHANGE =        2.7468D+08         STORAGE CHANGE =       -5346616.67
       --------------                             --------------
         LAND SURFACE =        1.5009D+08           LAND SURFACE =       -7639635.76
            SOIL ZONE =        2.4303D+07              SOIL ZONE =        -855485.63
     UNSATURATED ZONE =       -1247916.89       UNSATURATED ZONE =         324890.29
       SATURATED ZONE =       -1.5266D+07         SATURATED ZONE =         277626.19
                LAKES =        1.1680D+08                  LAKES =        2545988.25

 OVERALL BUDGET ERROR =        1.3738D+08           BUDGET ERROR =        1916781.87

  ***WARNING, CUMULATIVE VOLUME OFF > 5%
  ***CAUTION, FLUX RATES OFF > 10%

  PERCENT DISCREPANCY =             23.50    PERCENT DISCREPANCY =             43.68



1
 SUMMARY VOLUMETRIC BUDGET FOR GSFLOW 
 DATE: 04 21 1981              CUMULATIVE TIME STEP:     203
 MODFLOW STRESS PERIOD      1     CURRENT TIME STEP:     203     ITERATIONS:      17

 -----------------------------------------------------------------------------------

   CUMULATIVE VOLUMES               L**3   RATES FOR THIS TIME STEP           L**3/T
   ------------------                      ------------------------

                                     IN                                         IN
                                     --                                         --
        PRECIPITATION =        6.7418D+08          PRECIPITATION =                  
           STREAMFLOW =                               STREAMFLOW =                  
     GW BOUNDARY FLOW =                         GW BOUNDARY FLOW =                  


                                    OUT                                        OUT
                                    ---                                        ---
   EVAPOTRANSPIRATION =        2.0145D+08     EVAPOTRANSPIRATION =        3358371.10
           STREAMFLOW =        5.9345D+07             STREAMFLOW =         169579.17
     GW BOUNDARY FLOW =                         GW BOUNDARY FLOW =                  

   INFLOWS - OUTFLOWS =        4.1339D+08     INFLOWS - OUTFLOWS =       -3527950.27
             --------                                   --------

 TOTAL STORAGE CHANGE =        2.6449D+08         STORAGE CHANGE =       -5808775.58
       --------------                             --------------
         LAND SURFACE =        1.2707D+08           LAND SURFACE =       -3302133.36
            SOIL ZONE =        2.2510D+07              SOIL ZONE =       -2016286.44
     UNSATURATED ZONE =         378246.09       UNSATURATED ZONE =         143427.63
       SATURATED ZONE =       -1.5312D+07         SATURATED ZONE =         -73961.34
                LAKES =        1.2984D+08                  LAKES =        -559822.06

 OVERALL BUDGET ERROR =        1.4890D+08           BUDGET ERROR =        2280825.31

  ***WARNING, CUMULATIVE VOLUME OFF > 5%
  ***CAUTION, FLUX RATES OFF > 10%

  PERCENT DISCREPANCY =             24.83    PERCENT DISCREPANCY =             48.86



1
 SUMMARY VOLUMETRIC BUDGET FOR GSFLOW 
 DATE: 04 28 1981              CUMULATIVE TIME STEP:     210
 MODFLOW STRESS PERIOD      1     CURRENT TIME STEP:     210     ITERATIONS:      36

 -----------------------------------------------------------------------------------

   CUMULATIVE VOLUMES               L**3   RATES FOR THIS TIME STEP           L**3/T
   ------------------                      ------------------------

                                     IN                                         IN
                                     --                                         --
        PRECIPITATION =        6.8114D+08          PRECIPITATION =                  
           STREAMFLOW =                               STREAMFLOW =                  
     GW BOUNDARY FLOW =                         GW BOUNDARY FLOW =                  


                                    OUT                                        OUT
                                    ---                                        ---
   EVAPOTRANSPIRATION =        2.2629D+08     EVAPOTRANSPIRATION =        3444729.72
           STREAMFLOW =        6.0557D+07             STREAMFLOW =         169029.37
     GW BOUNDARY FLOW =                         GW BOUNDARY FLOW =                  

   INFLOWS - OUTFLOWS =        3.9430D+08     INFLOWS - OUTFLOWS =       -3613759.10
             --------                                   --------

 TOTAL STORAGE CHANGE =        2.2839D+08         STORAGE CHANGE =       -5900458.14
       --------------                             --------------
         LAND SURFACE =        1.0063D+08           LAND SURFACE =       -4252967.25
            SOIL ZONE =        1.2684D+07              SOIL ZONE =       -1642932.48
     UNSATURATED ZONE =         502627.61       UNSATURATED ZONE =         -56826.23
       SATURATED ZONE =       -1.5364D+07         SATURATED ZONE =          90647.70
                LAKES =        1.2995D+08                  LAKES =         -38379.88

 OVERALL BUDGET ERROR =        1.6590D+08           BUDGET ERROR =        2286699.04

  ***WARNING, CUMULATIVE VOLUME OFF > 5%
  ***CAUTION, FLUX RATES OFF > 10%

  PERCENT DISCREPANCY =             27.73    PERCENT DISCREPANCY =             48.07



1
 SUMMARY VOLUMETRIC BUDGET FOR GSFLOW 
 DATE: 05 05 1981              CUMULATIVE TIME STEP:     217
 MODFLOW STRESS PERIOD      1     CURRENT TIME STEP:     217     ITERATIONS:      60

 -----------------------------------------------------------------------------------

   CUMULATIVE VOLUMES               L**3   RATES FOR THIS TIME STEP           L**3/T
   ------------------                      ------------------------

                                     IN                                         IN
                                     --                                         --
        PRECIPITATION =        6.8811D+08          PRECIPITATION =                  
           STREAMFLOW =                               STREAMFLOW =                  
     GW BOUNDARY FLOW =                         GW BOUNDARY FLOW =                  


                                    OUT                                        OUT
                                    ---                                        ---
   EVAPOTRANSPIRATION =        2.4845D+08     EVAPOTRANSPIRATION =        2167223.38
           STREAMFLOW =        6.1774D+07             STREAMFLOW =         173796.00
     GW BOUNDARY FLOW =                         GW BOUNDARY FLOW =                  

   INFLOWS - OUTFLOWS =        3.7788D+08     INFLOWS - OUTFLOWS =       -2341019.38
             --------                                   --------

 TOTAL STORAGE CHANGE =        1.9539D+08         STORAGE CHANGE =       -4057232.98
       --------------                             --------------
         LAND SURFACE =        7.3996D+07           LAND SURFACE =       -3142859.36
            SOIL ZONE =        6163029.96              SOIL ZONE =        -903782.21
     UNSATURATED ZONE =       -1046356.14       UNSATURATED ZONE =        -105204.34
       SATURATED ZONE =       -1.4552D+07         SATURATED ZONE =         -30854.14
                LAKES =        1.3083D+08                  LAKES =         125467.07

 OVERALL BUDGET ERROR =        1.8249D+08           BUDGET ERROR =        1716213.61

  ***WARNING, CUMULATIVE VOLUME OFF > 5%
  ***CAUTION, FLUX RATES OFF > 10%

  PERCENT DISCREPANCY =             30.57    PERCENT DISCREPANCY =             53.65



1
 SUMMARY VOLUMETRIC BUDGET FOR GSFLOW 
 DATE: 05 12 1981              CUMULATIVE TIME STEP:     224
 MODFLOW STRESS PERIOD      1     CURRENT TIME STEP:     224     ITERATIONS:      63

 -----------------------------------------------------------------------------------

   CUMULATIVE VOLUMES               L**3   RATES FOR THIS TIME STEP           L**3/T
   ------------------                      ------------------------

                                     IN                                         IN
                                     --                                         --
        PRECIPITATION =        6.8811D+08          PRECIPITATION =                  
           STREAMFLOW =                               STREAMFLOW =                  
     GW BOUNDARY FLOW =                         GW BOUNDARY FLOW =                  


                                    OUT                                        OUT
                                    ---                                        ---
   EVAPOTRANSPIRATION =        2.6495D+08     EVAPOTRANSPIRATION =        2538633.48
           STREAMFLOW =        6.2971D+07             STREAMFLOW =         168853.17
     GW BOUNDARY FLOW =                         GW BOUNDARY FLOW =                  

   INFLOWS - OUTFLOWS =        3.6019D+08     INFLOWS - OUTFLOWS =       -2707486.65
             --------                                   --------

 TOTAL STORAGE CHANGE =        1.6482D+08         STORAGE CHANGE =       -4842333.15
       --------------                             --------------
         LAND SURFACE =        4.9094D+07           LAND SURFACE =       -3677638.49
            SOIL ZONE =        -355631.75              SOIL ZONE =        -936992.52
     UNSATURATED ZONE =       -3624757.83       UNSATURATED ZONE =        -940577.25
       SATURATED ZONE =       -1.3356D+07         SATURATED ZONE =         520233.56
                LAKES =        1.3306D+08                  LAKES =         192641.55

 OVERALL BUDGET ERROR =        1.9537D+08           BUDGET ERROR =        2134846.50

  ***WARNING, CUMULATIVE VOLUME OFF > 5%
  ***CAUTION, FLUX RATES OFF > 10%

  PERCENT DISCREPANCY =             33.09    PERCENT DISCREPANCY =             56.55



1
 SUMMARY VOLUMETRIC BUDGET FOR GSFLOW 
 DATE: 05 19 1981              CUMULATIVE TIME STEP:     231
 MODFLOW STRESS PERIOD      1     CURRENT TIME STEP:     231     ITERATIONS:      37

 -----------------------------------------------------------------------------------

   CUMULATIVE VOLUMES               L**3   RATES FOR THIS TIME STEP           L**3/T
   ------------------                      ------------------------

                                     IN                                         IN
                                     --                                         --
        PRECIPITATION =        7.4671D+08          PRECIPITATION =        3447112.78
           STREAMFLOW =                               STREAMFLOW =                  
     GW BOUNDARY FLOW =                         GW BOUNDARY FLOW =                  


                                    OUT                                        OUT
                                    ---                                        ---
   EVAPOTRANSPIRATION =        2.7494D+08     EVAPOTRANSPIRATION =        1089099.04
           STREAMFLOW =        6.4161D+07             STREAMFLOW =         172527.06
     GW BOUNDARY FLOW =                         GW BOUNDARY FLOW =                  

   INFLOWS - OUTFLOWS =        4.0761D+08     INFLOWS - OUTFLOWS =        2185486.67
             --------                                   --------

 TOTAL STORAGE CHANGE =        2.0362D+08         STORAGE CHANGE =        1524653.95
       --------------                             --------------
         LAND SURFACE =        5.2560D+07           LAND SURFACE =       -3316295.82
            SOIL ZONE =        1.0612D+07              SOIL ZONE =        1983150.87
     UNSATURATED ZONE =       -3791423.72       UNSATURATED ZONE =          61116.17
       SATURATED ZONE =       -1.3057D+07         SATURATED ZONE =          14214.23
                LAKES =        1.5729D+08                  LAKES =        2782468.50

 OVERALL BUDGET ERROR =        2.0399D+08           BUDGET ERROR =         660832.72

  ***WARNING, CUMULATIVE VOLUME OFF > 5%
  ***CAUTION, FLUX RATES OFF > 10%

  PERCENT DISCREPANCY =             31.64    PERCENT DISCREPANCY =             21.20



1
 SUMMARY VOLUMETRIC BUDGET FOR GSFLOW 
 DATE: 05 26 1981              CUMULATIVE TIME STEP:     238
 MODFLOW STRESS PERIOD      1     CURRENT TIME STEP:     238     ITERATIONS:      16

 -----------------------------------------------------------------------------------

   CUMULATIVE VOLUMES               L**3   RATES FOR THIS TIME STEP           L**3/T
   ------------------                      ------------------------

                                     IN                                         IN
                                     --                                         --
        PRECIPITATION =        7.7429D+08          PRECIPITATION =        1.7236D+07
           STREAMFLOW =                               STREAMFLOW =                  
     GW BOUNDARY FLOW =                         GW BOUNDARY FLOW =                  


                                    OUT                                        OUT
                                    ---                                        ---
   EVAPOTRANSPIRATION =        2.9330D+08     EVAPOTRANSPIRATION =        1602978.93
           STREAMFLOW =        6.5363D+07             STREAMFLOW =         180466.05
     GW BOUNDARY FLOW =                         GW BOUNDARY FLOW =                  

   INFLOWS - OUTFLOWS =        4.1562D+08     INFLOWS - OUTFLOWS =        1.5452D+07
             --------                                   --------

 TOTAL STORAGE CHANGE =        1.9850D+08         STORAGE CHANGE =        1.4260D+07
       --------------                             --------------
         LAND SURFACE =        3.5549D+07           LAND SURFACE =        -311649.70
            SOIL ZONE =        9182807.95              SOIL ZONE =        4565780.54
     UNSATURATED ZONE =       -3666005.10       UNSATURATED ZONE =          78907.44
       SATURATED ZONE =       -1.2561D+07         SATURATED ZONE =         547640.88
                LAKES =        1.7000D+08                  LAKES =        9379512.00

 OVERALL BUDGET ERROR =        2.1712D+08           BUDGET ERROR =        1191927.53

  ***WARNING, CUMULATIVE VOLUME OFF > 5%
  ***WARNING, FLUX RATES OFF > 3%

  PERCENT DISCREPANCY =             32.61    PERCENT DISCREPANCY =              7.16



1
 SUMMARY VOLUMETRIC BUDGET FOR GSFLOW 
 DATE: 06 02 1981              CUMULATIVE TIME STEP:     245
 MODFLOW STRESS PERIOD      1     CURRENT TIME STEP:     245     ITERATIONS:      39

 -----------------------------------------------------------------------------------

   CUMULATIVE VOLUMES               L**3   RATES FOR THIS TIME STEP           L**3/T
   ------------------                      ------------------------

                                     IN                                         IN
                                     --                                         --
        PRECIPITATION =        7.7429D+08          PRECIPITATION =                  
           STREAMFLOW =                               STREAMFLOW =                  
     GW BOUNDARY FLOW =                         GW BOUNDARY FLOW =                  


                                    OUT                                        OUT
                                    ---                                        ---
   EVAPOTRANSPIRATION =        3.1630D+08     EVAPOTRANSPIRATION =        3068681.69
           STREAMFLOW =        6.6583D+07             STREAMFLOW =         178725.95
     GW BOUNDARY FLOW =                         GW BOUNDARY FLOW =                  

   INFLOWS - OUTFLOWS =        3.9140D+08     INFLOWS - OUTFLOWS =       -3247407.64
             --------                                   --------

 TOTAL STORAGE CHANGE =        1.5622D+08         STORAGE CHANGE =       -6082583.53
       --------------                             --------------
         LAND SURFACE =        2.1595D+07           LAND SURFACE =       -1680702.72
            SOIL ZONE =       -6626378.29              SOIL ZONE =       -1910225.72
     UNSATURATED ZONE =       -8438863.86       UNSATURATED ZONE =        -218049.35
       SATURATED ZONE =       -1.0952D+07         SATURATED ZONE =        -226077.11
                LAKES =        1.6064D+08                  LAKES =       -2047528.62

 OVERALL BUDGET ERROR =        2.3519D+08           BUDGET ERROR =        2835175.89

  ***WARNING, CUMULATIVE VOLUME OFF > 5%
  ***CAUTION, FLUX RATES OFF > 10%

  PERCENT DISCREPANCY =             35.81    PERCENT DISCREPANCY =             60.78



1
 SUMMARY VOLUMETRIC BUDGET FOR GSFLOW 
 DATE: 06 09 1981              CUMULATIVE TIME STEP:     252
 MODFLOW STRESS PERIOD      1     CURRENT TIME STEP:     252     ITERATIONS:      52

 -----------------------------------------------------------------------------------

   CUMULATIVE VOLUMES               L**3   RATES FOR THIS TIME STEP           L**3/T
   ------------------                      ------------------------

                                     IN                                         IN
                                     --                                         --
        PRECIPITATION =        7.7752D+08          PRECIPITATION =                  
           STREAMFLOW =                               STREAMFLOW =                  
     GW BOUNDARY FLOW =                         GW BOUNDARY FLOW =                  


                                    OUT                                        OUT
                                    ---                                        ---
   EVAPOTRANSPIRATION =        3.3574D+08     EVAPOTRANSPIRATION =        2736751.39
           STREAMFLOW =        6.7826D+07             STREAMFLOW =         203133.83
[...]
 MODFLOW STRESS PERIOD      1     CURRENT TIME STEP:    1155     ITERATIONS:       2

 -----------------------------------------------------------------------------------

   CUMULATIVE VOLUMES               L**3   RATES FOR THIS TIME STEP           L**3/T
   ------------------                      ------------------------

                                     IN                                         IN
                                     --                                         --
        PRECIPITATION =        5.5463D+09          PRECIPITATION =        6461469.31
           STREAMFLOW =                               STREAMFLOW =                  
     GW BOUNDARY FLOW =                         GW BOUNDARY FLOW =                  


                                    OUT                                        OUT
                                    ---                                        ---
   EVAPOTRANSPIRATION =        1.5521D+09     EVAPOTRANSPIRATION =         214478.17
           STREAMFLOW =        1.6168D+09             STREAMFLOW =        4966705.50
     GW BOUNDARY FLOW =                         GW BOUNDARY FLOW =                  

   INFLOWS - OUTFLOWS =        2.3773D+09     INFLOWS - OUTFLOWS =        1280285.64
             --------                                   --------

 TOTAL STORAGE CHANGE =        9.5448D+08         STORAGE CHANGE =        1087520.55
       --------------                             --------------
         LAND SURFACE =        3.3601D+08           LAND SURFACE =        4614418.78
            SOIL ZONE =        4986764.23              SOIL ZONE =         -72024.99
     UNSATURATED ZONE =       -1.4316D+07       UNSATURATED ZONE =          31349.50
       SATURATED ZONE =       -6.9045D+07         SATURATED ZONE =        -173351.73
                LAKES =        6.9684D+08                  LAKES =       -3312871.00

 OVERALL BUDGET ERROR =        1.4228D+09           BUDGET ERROR =         192765.08

  ***WARNING, CUMULATIVE VOLUME OFF > 5%
  ***WARNING, FLUX RATES OFF > 3%

  PERCENT DISCREPANCY =             29.43    PERCENT DISCREPANCY =              3.03



1
 SUMMARY VOLUMETRIC BUDGET FOR GSFLOW 
 DATE: 12 06 1983              CUMULATIVE TIME STEP:    1162
 MODFLOW STRESS PERIOD      1     CURRENT TIME STEP:    1162     ITERATIONS:       6

 -----------------------------------------------------------------------------------

   CUMULATIVE VOLUMES               L**3   RATES FOR THIS TIME STEP           L**3/T
   ------------------                      ------------------------

                                     IN                                         IN
                                     --                                         --
        PRECIPITATION =        5.6038D+09          PRECIPITATION =        3198161.89
           STREAMFLOW =                               STREAMFLOW =                  
     GW BOUNDARY FLOW =                         GW BOUNDARY FLOW =                  


                                    OUT                                        OUT
                                    ---                                        ---
   EVAPOTRANSPIRATION =        1.5543D+09     EVAPOTRANSPIRATION =          93033.45
           STREAMFLOW =        1.6522D+09             STREAMFLOW =        5064639.00
     GW BOUNDARY FLOW =                         GW BOUNDARY FLOW =                  

   INFLOWS - OUTFLOWS =        2.3973D+09     INFLOWS - OUTFLOWS =       -1959510.56
             --------                                   --------

 TOTAL STORAGE CHANGE =        9.7259D+08         STORAGE CHANGE =       -2090087.02
       --------------                             --------------
         LAND SURFACE =        3.7453D+08           LAND SURFACE =        2297029.22
            SOIL ZONE =        5533159.13              SOIL ZONE =        -127055.64
     UNSATURATED ZONE =       -1.4105D+07       UNSATURATED ZONE =          32680.93
       SATURATED ZONE =       -7.0032D+07         SATURATED ZONE =        -158451.77
                LAKES =        6.7666D+08                  LAKES =       -4134289.75

 OVERALL BUDGET ERROR =        1.4247D+09           BUDGET ERROR =         130576.46

  ***WARNING, CUMULATIVE VOLUME OFF > 5%

  PERCENT DISCREPANCY =             29.13    PERCENT DISCREPANCY =              2.50



1
 SUMMARY VOLUMETRIC BUDGET FOR GSFLOW 
 DATE: 12 13 1983              CUMULATIVE TIME STEP:    1169
 MODFLOW STRESS PERIOD      1     CURRENT TIME STEP:    1169     ITERATIONS:      13

 -----------------------------------------------------------------------------------

   CUMULATIVE VOLUMES               L**3   RATES FOR THIS TIME STEP           L**3/T
   ------------------                      ------------------------

                                     IN                                         IN
                                     --                                         --
        PRECIPITATION =        5.6998D+09          PRECIPITATION =        9594484.95
           STREAMFLOW =                               STREAMFLOW =                  
     GW BOUNDARY FLOW =                         GW BOUNDARY FLOW =                  


                                    OUT                                        OUT
                                    ---                                        ---
   EVAPOTRANSPIRATION =        1.5564D+09     EVAPOTRANSPIRATION =         135736.00
           STREAMFLOW =        1.6892D+09             STREAMFLOW =        5260512.00
     GW BOUNDARY FLOW =                         GW BOUNDARY FLOW =                  

   INFLOWS - OUTFLOWS =        2.4542D+09     INFLOWS - OUTFLOWS =        4198236.95
             --------                                   --------

 TOTAL STORAGE CHANGE =        1.0272D+09         STORAGE CHANGE =        4043285.42
       --------------                             --------------
         LAND SURFACE =        4.3881D+08           LAND SURFACE =        7023337.24
            SOIL ZONE =        6772497.44              SOIL ZONE =        -177591.17
     UNSATURATED ZONE =       -1.3564D+07       UNSATURATED ZONE =          51543.88
       SATURATED ZONE =       -7.0856D+07         SATURATED ZONE =        -177876.03
                LAKES =        6.6602D+08                  LAKES =       -2676128.50

 OVERALL BUDGET ERROR =        1.4270D+09           BUDGET ERROR =         154951.52

  ***WARNING, CUMULATIVE VOLUME OFF > 5%

  PERCENT DISCREPANCY =             28.62    PERCENT DISCREPANCY =              1.63



1
 SUMMARY VOLUMETRIC BUDGET FOR GSFLOW 
 DATE: 12 20 1983              CUMULATIVE TIME STEP:    1176
 MODFLOW STRESS PERIOD      1     CURRENT TIME STEP:    1176     ITERATIONS:       7

 -----------------------------------------------------------------------------------

   CUMULATIVE VOLUMES               L**3   RATES FOR THIS TIME STEP           L**3/T
   ------------------                      ------------------------

                                     IN                                         IN
                                     --                                         --
        PRECIPITATION =        5.7158D+09          PRECIPITATION =                  
           STREAMFLOW =                               STREAMFLOW =                  
     GW BOUNDARY FLOW =                         GW BOUNDARY FLOW =                  


                                    OUT                                        OUT
                                    ---                                        ---
   EVAPOTRANSPIRATION =        1.5611D+09     EVAPOTRANSPIRATION =         232402.88
           STREAMFLOW =        1.7277D+09             STREAMFLOW =        5578472.50
     GW BOUNDARY FLOW =                         GW BOUNDARY FLOW =                  

   INFLOWS - OUTFLOWS =        2.4269D+09     INFLOWS - OUTFLOWS =       -5810875.38
             --------                                   --------

 TOTAL STORAGE CHANGE =        9.9636D+08         STORAGE CHANGE =       -5948435.45
       --------------                             --------------
         LAND SURFACE =        4.4222D+08           LAND SURFACE =        -213865.81
            SOIL ZONE =        7500634.71              SOIL ZONE =        -176459.30
     UNSATURATED ZONE =       -1.3180D+07       UNSATURATED ZONE =          44656.18
       SATURATED ZONE =       -7.1902D+07         SATURATED ZONE =        -172617.52
                LAKES =        6.3173D+08                  LAKES =       -5430149.00

 OVERALL BUDGET ERROR =        1.4306D+09           BUDGET ERROR =         137560.06

  ***WARNING, CUMULATIVE VOLUME OFF > 5%

  PERCENT DISCREPANCY =             28.61    PERCENT DISCREPANCY =              2.34



1
 SUMMARY VOLUMETRIC BUDGET FOR GSFLOW 
 DATE: 12 27 1983              CUMULATIVE TIME STEP:    1183
 MODFLOW STRESS PERIOD      1     CURRENT TIME STEP:    1183     ITERATIONS:      19

 -----------------------------------------------------------------------------------

   CUMULATIVE VOLUMES               L**3   RATES FOR THIS TIME STEP           L**3/T
   ------------------                      ------------------------

                                     IN                                         IN
                                     --                                         --
        PRECIPITATION =        5.8917D+09          PRECIPITATION =        9594484.95
           STREAMFLOW =                               STREAMFLOW =                  
     GW BOUNDARY FLOW =                         GW BOUNDARY FLOW =                  


                                    OUT                                        OUT
                                    ---                                        ---
   EVAPOTRANSPIRATION =        1.5625D+09     EVAPOTRANSPIRATION =         248420.26
           STREAMFLOW =        1.7667D+09             STREAMFLOW =        5677393.00
     GW BOUNDARY FLOW =                         GW BOUNDARY FLOW =                  

   INFLOWS - OUTFLOWS =        2.5624D+09     INFLOWS - OUTFLOWS =        3668671.69
             --------                                   --------

 TOTAL STORAGE CHANGE =        1.1301D+09         STORAGE CHANGE =        3424222.38
       --------------                             --------------
         LAND SURFACE =        5.6722D+08           LAND SURFACE =        5883791.66
            SOIL ZONE =        8226213.94              SOIL ZONE =         229391.61
     UNSATURATED ZONE =       -1.2916D+07       UNSATURATED ZONE =         105155.33
       SATURATED ZONE =       -7.2503D+07         SATURATED ZONE =         -99415.22
                LAKES =        6.4006D+08                  LAKES =       -2694701.00

 OVERALL BUDGET ERROR =        1.4324D+09           BUDGET ERROR =         244449.31

  ***WARNING, CUMULATIVE VOLUME OFF > 5%

  PERCENT DISCREPANCY =             27.68    PERCENT DISCREPANCY =              2.58



1
 SUMMARY VOLUMETRIC BUDGET FOR GSFLOW 
 DATE: 01 03 1984              CUMULATIVE TIME STEP:    1190
 MODFLOW STRESS PERIOD      1     CURRENT TIME STEP:    1190     ITERATIONS:       4

 -----------------------------------------------------------------------------------

   CUMULATIVE VOLUMES               L**3   RATES FOR THIS TIME STEP           L**3/T
   ------------------                      ------------------------

                                     IN                                         IN
                                     --                                         --
        PRECIPITATION =        5.9235D+09          PRECIPITATION =                  
           STREAMFLOW =                               STREAMFLOW =                  
     GW BOUNDARY FLOW =                         GW BOUNDARY FLOW =                  


                                    OUT                                        OUT
                                    ---                                        ---
   EVAPOTRANSPIRATION =        1.5664D+09     EVAPOTRANSPIRATION =         999976.23
           STREAMFLOW =        1.8063D+09             STREAMFLOW =        5603065.50
     GW BOUNDARY FLOW =                         GW BOUNDARY FLOW =                  

   INFLOWS - OUTFLOWS =        2.5507D+09     INFLOWS - OUTFLOWS =       -6603041.73
             --------                                   --------

 TOTAL STORAGE CHANGE =        1.1153D+09         STORAGE CHANGE =       -7120115.61
       --------------                             --------------
         LAND SURFACE =        5.8049D+08           LAND SURFACE =        -951131.12
            SOIL ZONE =        8934741.29              SOIL ZONE =        -187706.54
     UNSATURATED ZONE =       -1.2445D+07       UNSATURATED ZONE =          10945.54
       SATURATED ZONE =       -7.3389D+07         SATURATED ZONE =        -193683.50
                LAKES =        6.1168D+08                  LAKES =       -5798540.00

 OVERALL BUDGET ERROR =        1.4354D+09           BUDGET ERROR =         517073.88

  ***WARNING, CUMULATIVE VOLUME OFF > 5%
  ***WARNING, FLUX RATES OFF > 3%

  PERCENT DISCREPANCY =             27.57    PERCENT DISCREPANCY =              7.54



1
 SUMMARY VOLUMETRIC BUDGET FOR GSFLOW 
 DATE: 01 10 1984              CUMULATIVE TIME STEP:    1197
 MODFLOW STRESS PERIOD      1     CURRENT TIME STEP:    1197     ITERATIONS:       6

 -----------------------------------------------------------------------------------

   CUMULATIVE VOLUMES               L**3   RATES FOR THIS TIME STEP           L**3/T
   ------------------                      ------------------------

                                     IN                                         IN
                                     --                                         --
        PRECIPITATION =        5.9235D+09          PRECIPITATION =                  
           STREAMFLOW =                               STREAMFLOW =                  
     GW BOUNDARY FLOW =                         GW BOUNDARY FLOW =                  


                                    OUT                                        OUT
                                    ---                                        ---
   EVAPOTRANSPIRATION =        1.5751D+09     EVAPOTRANSPIRATION =        1194511.13
           STREAMFLOW =        1.8438D+09             STREAMFLOW =        5235933.50
     GW BOUNDARY FLOW =                         GW BOUNDARY FLOW =                  

   INFLOWS - OUTFLOWS =        2.5046D+09     INFLOWS - OUTFLOWS =       -6430444.63
             --------                                   --------

 TOTAL STORAGE CHANGE =        1.0649D+09         STORAGE CHANGE =       -7045097.63
       --------------                             --------------
         LAND SURFACE =        5.6881D+08           LAND SURFACE =       -1899310.74
            SOIL ZONE =        9903795.27              SOIL ZONE =         270513.62
     UNSATURATED ZONE =       -1.2419D+07       UNSATURATED ZONE =          23605.20
       SATURATED ZONE =       -7.4314D+07         SATURATED ZONE =         -96691.72
                LAKES =        5.7289D+08                  LAKES =       -5343214.00

 OVERALL BUDGET ERROR =        1.4397D+09           BUDGET ERROR =         614653.00

  ***WARNING, CUMULATIVE VOLUME OFF > 5%
  ***WARNING, FLUX RATES OFF > 3%

  PERCENT DISCREPANCY =             27.67    PERCENT DISCREPANCY =              9.12



1
 SUMMARY VOLUMETRIC BUDGET FOR GSFLOW 
 DATE: 01 17 1984              CUMULATIVE TIME STEP:    1204
 MODFLOW STRESS PERIOD      1     CURRENT TIME STEP:    1204     ITERATIONS:       3

 -----------------------------------------------------------------------------------

   CUMULATIVE VOLUMES               L**3   RATES FOR THIS TIME STEP           L**3/T
   ------------------                      ------------------------

                                     IN                                         IN
                                     --                                         --
        PRECIPITATION =        5.9475D+09          PRECIPITATION =                  
           STREAMFLOW =                               STREAMFLOW =                  
     GW BOUNDARY FLOW =                         GW BOUNDARY FLOW =                  


                                    OUT                                        OUT
                                    ---                                        ---
   EVAPOTRANSPIRATION =        1.5775D+09     EVAPOTRANSPIRATION =         387316.54
           STREAMFLOW =        1.8795D+09             STREAMFLOW =        5015584.50
     GW BOUNDARY FLOW =                         GW BOUNDARY FLOW =                  

   INFLOWS - OUTFLOWS =        2.4904D+09     INFLOWS - OUTFLOWS =       -5402901.04
             --------                                   --------

 TOTAL STORAGE CHANGE =        1.0492D+09         STORAGE CHANGE =       -5549089.04
       --------------                             --------------
         LAND SURFACE =        5.8433D+08           LAND SURFACE =        -355918.57
            SOIL ZONE =        8957156.35              SOIL ZONE =         -93824.85
     UNSATURATED ZONE =       -1.2339D+07       UNSATURATED ZONE =           -234.32
       SATURATED ZONE =       -7.5389D+07         SATURATED ZONE =        -161041.80
                LAKES =        5.4361D+08                  LAKES =       -4938069.50

 OVERALL BUDGET ERROR =        1.4413D+09           BUDGET ERROR =         146187.99

  ***WARNING, CUMULATIVE VOLUME OFF > 5%

  PERCENT DISCREPANCY =             27.57    PERCENT DISCREPANCY =              2.67



1
 SUMMARY VOLUMETRIC BUDGET FOR GSFLOW 
 DATE: 01 24 1984              CUMULATIVE TIME STEP:    1211
 MODFLOW STRESS PERIOD      1     CURRENT TIME STEP:    1211     ITERATIONS:       4

 -----------------------------------------------------------------------------------

   CUMULATIVE VOLUMES               L**3   RATES FOR THIS TIME STEP           L**3/T
   ------------------                      ------------------------

                                     IN                                         IN
                                     --                                         --
        PRECIPITATION =        5.9535D+09          PRECIPITATION =                  
           STREAMFLOW =                               STREAMFLOW =                  
     GW BOUNDARY FLOW =                         GW BOUNDARY FLOW =                  


                                    OUT                                        OUT
                                    ---                                        ---
   EVAPOTRANSPIRATION =        1.5809D+09     EVAPOTRANSPIRATION =         632645.32
           STREAMFLOW =        1.9143D+09             STREAMFLOW =        4917690.00
     GW BOUNDARY FLOW =                         GW BOUNDARY FLOW =                  

   INFLOWS - OUTFLOWS =        2.4583D+09     INFLOWS - OUTFLOWS =       -5550335.32
             --------                                   --------

 TOTAL STORAGE CHANGE =        1.0148D+09         STORAGE CHANGE =       -5993933.46
       --------------                             --------------
         LAND SURFACE =        5.8574D+08           LAND SURFACE =        -567657.68
            SOIL ZONE =        8450164.04              SOIL ZONE =         -62433.09
     UNSATURATED ZONE =       -1.2597D+07       UNSATURATED ZONE =         -45012.45
       SATURATED ZONE =       -7.6410D+07         SATURATED ZONE =        -159721.23
                LAKES =        5.0962D+08                  LAKES =       -5159109.00

 OVERALL BUDGET ERROR =        1.4435D+09           BUDGET ERROR =         443598.14

  ***WARNING, CUMULATIVE VOLUME OFF > 5%
  ***WARNING, FLUX RATES OFF > 3%

  PERCENT DISCREPANCY =             27.59    PERCENT DISCREPANCY =              7.69



