1
 SUMMARY VOLUMETRIC BUDGET FOR GSFLOW 
 DATE: 10 07 1980              CUMULATIVE TIME STEP:       7
 MODFLOW STRESS PERIOD      1     CURRENT TIME STEP:       7     ITERATIONS:      14

 -----------------------------------------------------------------------------------

   CUMULATIVE VOLUMES               L**3   RATES FOR THIS TIME STEP           L**3/T
   ------------------                      ------------------------

                                     IN                                         IN
                                     --                                         --
        PRECIPITATION =                            PRECIPITATION =                  
           STREAMFLOW =                               STREAMFLOW =                  
     GW BOUNDARY FLOW =                         GW BOUNDARY FLOW =                  


                                    OUT                                        OUT
                                    ---                                        ---
   EVAPOTRANSPIRATION =        1.5511D+07     EVAPOTRANSPIRATION =        1478881.36
           STREAMFLOW =        1672058.77             STREAMFLOW =         183556.67
     GW BOUNDARY FLOW =                         GW BOUNDARY FLOW =                  

   INFLOWS - OUTFLOWS =       -1.7183D+07     INFLOWS - OUTFLOWS =       -1662438.03
             --------                                   --------

 TOTAL STORAGE CHANGE =       -1.7157D+07         STORAGE CHANGE =       -1664381.50
       --------------                             --------------
         LAND SURFACE =                             LAND SURFACE =                  
            SOIL ZONE =       -5762960.39              SOIL ZONE =        -270465.11
     UNSATURATED ZONE =       -1007862.74       UNSATURATED ZONE =         -54922.61
       SATURATED ZONE =       -1300626.94         SATURATED ZONE =        -269871.91
                LAKES =       -9085744.75                  LAKES =       -1069121.88

 OVERALL BUDGET ERROR =         -25985.08           BUDGET ERROR =           1943.46


  PERCENT DISCREPANCY =             -0.15    PERCENT DISCREPANCY =              0.12



1
 SUMMARY VOLUMETRIC BUDGET FOR GSFLOW 
 DATE: 10 14 1980              CUMULATIVE TIME STEP:      14
 MODFLOW STRESS PERIOD      1     CURRENT TIME STEP:      14     ITERATIONS:       3

 -----------------------------------------------------------------------------------

   CUMULATIVE VOLUMES               L**3   RATES FOR THIS TIME STEP           L**3/T
   ------------------                      ------------------------

                                     IN                                         IN
                                     --                                         --
        PRECIPITATION =        1.3442D+07          PRECIPITATION =        6721104.51
           STREAMFLOW =                               STREAMFLOW =                  
     GW BOUNDARY FLOW =                         GW BOUNDARY FLOW =                  


                                    OUT                                        OUT
                                    ---                                        ---
   EVAPOTRANSPIRATION =        2.3219D+07     EVAPOTRANSPIRATION =         507117.51
           STREAMFLOW =        2279257.54             STREAMFLOW =          34825.50
     GW BOUNDARY FLOW =                         GW BOUNDARY FLOW =                  

   INFLOWS - OUTFLOWS =       -1.2056D+07     INFLOWS - OUTFLOWS =        6179161.50
             --------                                   --------

 TOTAL STORAGE CHANGE =       -1.2123D+07         STORAGE CHANGE =        6136212.93
       --------------                             --------------
         LAND SURFACE =        2292332.54           LAND SURFACE =        1396244.76
            SOIL ZONE =         153423.19              SOIL ZONE =        3131504.41
     UNSATURATED ZONE =       -1444973.64       UNSATURATED ZONE =         -57230.39
       SATURATED ZONE =       -2729795.11         SATURATED ZONE =        -121178.61
                LAKES =       -1.0394D+07                  LAKES =        1786872.75

 OVERALL BUDGET ERROR =          66945.99           BUDGET ERROR =          42948.57


  PERCENT DISCREPANCY =              0.26    PERCENT DISCREPANCY =              0.64



1
 SUMMARY VOLUMETRIC BUDGET FOR GSFLOW 
 DATE: 10 21 1980              CUMULATIVE TIME STEP:      21
 MODFLOW STRESS PERIOD      1     CURRENT TIME STEP:      21     ITERATIONS:       3

 -----------------------------------------------------------------------------------

   CUMULATIVE VOLUMES               L**3   RATES FOR THIS TIME STEP           L**3/T
   ------------------                      ------------------------

                                     IN                                         IN
                                     --                                         --
        PRECIPITATION =        1.6803D+07          PRECIPITATION =                  
           STREAMFLOW =                               STREAMFLOW =                  
     GW BOUNDARY FLOW =                         GW BOUNDARY FLOW =                  


                                    OUT                                        OUT
                                    ---                                        ---
   EVAPOTRANSPIRATION =        3.0233D+07     EVAPOTRANSPIRATION =        1467066.03
           STREAMFLOW =        3039696.79             STREAMFLOW =         364392.81
     GW BOUNDARY FLOW =                         GW BOUNDARY FLOW =                  

   INFLOWS - OUTFLOWS =       -1.6470D+07     INFLOWS - OUTFLOWS =       -1831458.84
             --------                                   --------

 TOTAL STORAGE CHANGE =       -1.6550D+07         STORAGE CHANGE =       -1828178.12
       --------------                             --------------
         LAND SURFACE =         450933.11           LAND SURFACE =        -157820.81
            SOIL ZONE =        -328511.81              SOIL ZONE =        -679592.61
     UNSATURATED ZONE =       -1881069.97       UNSATURATED ZONE =         -58658.82
       SATURATED ZONE =       -3772063.80         SATURATED ZONE =        -158367.25
                LAKES =       -1.1019D+07                  LAKES =        -773738.62

 OVERALL BUDGET ERROR =          79955.58           BUDGET ERROR =          -3280.72


  PERCENT DISCREPANCY =              0.24    PERCENT DISCREPANCY =             -0.18



1
 SUMMARY VOLUMETRIC BUDGET FOR GSFLOW 
 DATE: 10 28 1980              CUMULATIVE TIME STEP:      28
 MODFLOW STRESS PERIOD      1     CURRENT TIME STEP:      28     ITERATIONS:       4

 -----------------------------------------------------------------------------------

   CUMULATIVE VOLUMES               L**3   RATES FOR THIS TIME STEP           L**3/T
   ------------------                      ------------------------

                                     IN                                         IN
                                     --                                         --
        PRECIPITATION =        4.0327D+07          PRECIPITATION =                  
           STREAMFLOW =                               STREAMFLOW =                  
     GW BOUNDARY FLOW =                         GW BOUNDARY FLOW =                  


                                    OUT                                        OUT
                                    ---                                        ---
   EVAPOTRANSPIRATION =        3.7280D+07     EVAPOTRANSPIRATION =         461412.22
           STREAMFLOW =        5483164.94             STREAMFLOW =         342843.84
     GW BOUNDARY FLOW =                         GW BOUNDARY FLOW =                  

   INFLOWS - OUTFLOWS =       -2436231.72     INFLOWS - OUTFLOWS =        -804256.06
             --------                                   --------

 TOTAL STORAGE CHANGE =       -3044895.30         STORAGE CHANGE =        -769323.73
       --------------                             --------------
         LAND SURFACE =        4658064.73           LAND SURFACE =        -166816.91
            SOIL ZONE =        7112344.92              SOIL ZONE =        -271772.25
     UNSATURATED ZONE =       -2174529.23       UNSATURATED ZONE =         -31871.42
       SATURATED ZONE =       -4523351.12         SATURATED ZONE =        -126025.81
                LAKES =       -8117424.59                  LAKES =        -172837.34

 OVERALL BUDGET ERROR =         608663.58           BUDGET ERROR =         -34932.33

  ***WARNING, FLUX RATES OFF > 3%

  PERCENT DISCREPANCY =              1.41    PERCENT DISCREPANCY =             -4.44



1
 SUMMARY VOLUMETRIC BUDGET FOR GSFLOW 
 DATE: 11 04 1980              CUMULATIVE TIME STEP:      35
 MODFLOW STRESS PERIOD      1     CURRENT TIME STEP:      35     ITERATIONS:       7

 -----------------------------------------------------------------------------------

   CUMULATIVE VOLUMES               L**3   RATES FOR THIS TIME STEP           L**3/T
   ------------------                      ------------------------

                                     IN                                         IN
                                     --                                         --
        PRECIPITATION =        5.0408D+07          PRECIPITATION =                  
           STREAMFLOW =                               STREAMFLOW =                  
     GW BOUNDARY FLOW =                         GW BOUNDARY FLOW =                  


                                    OUT                                        OUT
                                    ---                                        ---
   EVAPOTRANSPIRATION =        5.2114D+07     EVAPOTRANSPIRATION =        2794238.89
           STREAMFLOW =        7932063.29             STREAMFLOW =         350030.38
     GW BOUNDARY FLOW =                         GW BOUNDARY FLOW =                  

   INFLOWS - OUTFLOWS =       -9638044.93     INFLOWS - OUTFLOWS =       -3144269.27
             --------                                   --------

 TOTAL STORAGE CHANGE =       -1.0599D+07         STORAGE CHANGE =       -3149762.84
       --------------                             --------------
         LAND SURFACE =         206598.96           LAND SURFACE =         -41867.41
            SOIL ZONE =        3878930.11              SOIL ZONE =       -1780658.57
     UNSATURATED ZONE =       -2137064.42       UNSATURATED ZONE =         -46057.97
       SATURATED ZONE =       -5062767.89         SATURATED ZONE =        -247453.14
                LAKES =       -7484228.40                  LAKES =       -1033725.75

 OVERALL BUDGET ERROR =         960486.70           BUDGET ERROR =           5493.57


  PERCENT DISCREPANCY =              1.59    PERCENT DISCREPANCY =              0.17



1
 SUMMARY VOLUMETRIC BUDGET FOR GSFLOW 
 DATE: 11 11 1980              CUMULATIVE TIME STEP:      42
 MODFLOW STRESS PERIOD      1     CURRENT TIME STEP:      42     ITERATIONS:       5

 -----------------------------------------------------------------------------------

   CUMULATIVE VOLUMES               L**3   RATES FOR THIS TIME STEP           L**3/T
   ------------------                      ------------------------

                                     IN                                         IN
                                     --                                         --
        PRECIPITATION =        7.9485D+07          PRECIPITATION =        3230734.65
           STREAMFLOW =                               STREAMFLOW =                  
     GW BOUNDARY FLOW =                         GW BOUNDARY FLOW =                  


                                    OUT                                        OUT
                                    ---                                        ---
   EVAPOTRANSPIRATION =        6.9953D+07     EVAPOTRANSPIRATION =        1696113.67
           STREAMFLOW =        9809691.39             STREAMFLOW =         250092.14
     GW BOUNDARY FLOW =                         GW BOUNDARY FLOW =                  

   INFLOWS - OUTFLOWS =        -277561.95     INFLOWS - OUTFLOWS =        1284528.84
             --------                                   --------

 TOTAL STORAGE CHANGE =       -1502715.15         STORAGE CHANGE =        1148813.62
       --------------                             --------------
         LAND SURFACE =        3266569.49           LAND SURFACE =        -110998.46
            SOIL ZONE =        8678321.22              SOIL ZONE =         699212.19
     UNSATURATED ZONE =       -2168565.26       UNSATURATED ZONE =          39575.42
       SATURATED ZONE =       -5933053.88         SATURATED ZONE =         -35744.53
                LAKES =       -5345986.71                  LAKES =         556769.00

 OVERALL BUDGET ERROR =        1225153.20           BUDGET ERROR =         135715.22

  ***WARNING, FLUX RATES OFF > 3%

  PERCENT DISCREPANCY =              1.52    PERCENT DISCREPANCY =              4.29



1
 SUMMARY VOLUMETRIC BUDGET FOR GSFLOW 
 DATE: 11 18 1980              CUMULATIVE TIME STEP:      49
 MODFLOW STRESS PERIOD      1     CURRENT TIME STEP:      49     ITERATIONS:       3

 -----------------------------------------------------------------------------------

   CUMULATIVE VOLUMES               L**3   RATES FOR THIS TIME STEP           L**3/T
   ------------------                      ------------------------

                                     IN                                         IN
                                     --                                         --
        PRECIPITATION =        8.5946D+07          PRECIPITATION =                  
           STREAMFLOW =                               STREAMFLOW =                  
     GW BOUNDARY FLOW =                         GW BOUNDARY FLOW =                  


                                    OUT                                        OUT
                                    ---                                        ---
   EVAPOTRANSPIRATION =        7.6245D+07     EVAPOTRANSPIRATION =        1510955.21
           STREAMFLOW =        1.1638D+07             STREAMFLOW =         312770.31
     GW BOUNDARY FLOW =                         GW BOUNDARY FLOW =                  

   INFLOWS - OUTFLOWS =       -1937198.86     INFLOWS - OUTFLOWS =       -1823725.52
             --------                                   --------

 TOTAL STORAGE CHANGE =       -2898673.09         STORAGE CHANGE =       -1769375.56
       --------------                             --------------
         LAND SURFACE =        3785521.16           LAND SURFACE =        -428824.73
            SOIL ZONE =        8057475.75              SOIL ZONE =        -668178.84
     UNSATURATED ZONE =       -2095848.85       UNSATURATED ZONE =          19793.61
       SATURATED ZONE =       -7168063.65         SATURATED ZONE =        -170627.75
                LAKES =       -5477757.51                  LAKES =        -521537.84

 OVERALL BUDGET ERROR =         961474.24           BUDGET ERROR =         -54349.96

  ***WARNING, FLUX RATES OFF > 3%

  PERCENT DISCREPANCY =              1.09    PERCENT DISCREPANCY =             -3.03



1
 SUMMARY VOLUMETRIC BUDGET FOR GSFLOW 
 DATE: 11 25 1980              CUMULATIVE TIME STEP:      56
 MODFLOW STRESS PERIOD      1     CURRENT TIME STEP:      56     ITERATIONS:       3

 -----------------------------------------------------------------------------------

   CUMULATIVE VOLUMES               L**3   RATES FOR THIS TIME STEP           L**3/T
   ------------------                      ------------------------

                                     IN                                         IN
                                     --                                         --
        PRECIPITATION =        8.9177D+07          PRECIPITATION =                  
           STREAMFLOW =                               STREAMFLOW =                  
     GW BOUNDARY FLOW =                         GW BOUNDARY FLOW =                  


                                    OUT                                        OUT
                                    ---                                        ---
   EVAPOTRANSPIRATION =        8.3095D+07     EVAPOTRANSPIRATION =         272926.42
           STREAMFLOW =        1.4055D+07             STREAMFLOW =         437097.81
     GW BOUNDARY FLOW =                         GW BOUNDARY FLOW =                  

   INFLOWS - OUTFLOWS =       -7972266.73     INFLOWS - OUTFLOWS =        -710024.23
             --------                                   --------

 TOTAL STORAGE CHANGE =       -9017014.72         STORAGE CHANGE =        -730969.86
       --------------                             --------------
         LAND SURFACE =        3623166.05           LAND SURFACE =         -24347.90
            SOIL ZONE =        6057962.37              SOIL ZONE =        -183622.54
     UNSATURATED ZONE =       -2108552.62       UNSATURATED ZONE =         -17509.20
       SATURATED ZONE =       -8405950.88         SATURATED ZONE =        -182879.81
                LAKES =       -8183639.64                  LAKES =        -322610.41

 OVERALL BUDGET ERROR =        1044747.99           BUDGET ERROR =          20945.62


  PERCENT DISCREPANCY =              1.07    PERCENT DISCREPANCY =              2.91



1
 SUMMARY VOLUMETRIC BUDGET FOR GSFLOW 
 DATE: 12 02 1980              CUMULATIVE TIME STEP:      63
 MODFLOW STRESS PERIOD      1     CURRENT TIME STEP:      63     ITERATIONS:       4

 -----------------------------------------------------------------------------------

   CUMULATIVE VOLUMES               L**3   RATES FOR THIS TIME STEP           L**3/T
   ------------------                      ------------------------

                                     IN                                         IN
                                     --                                         --
        PRECIPITATION =        1.0846D+08          PRECIPITATION =        3198161.89
           STREAMFLOW =                               STREAMFLOW =                  
     GW BOUNDARY FLOW =                         GW BOUNDARY FLOW =                  


                                    OUT                                        OUT
                                    ---                                        ---
   EVAPOTRANSPIRATION =        9.0643D+07     EVAPOTRANSPIRATION =        1276583.94
           STREAMFLOW =        1.7318D+07             STREAMFLOW =         437214.94
     GW BOUNDARY FLOW =                         GW BOUNDARY FLOW =                  

   INFLOWS - OUTFLOWS =         502941.81     INFLOWS - OUTFLOWS =        1484363.02
             --------                                   --------

 TOTAL STORAGE CHANGE =       -1030329.71         STORAGE CHANGE =        1308290.01
       --------------                             --------------
         LAND SURFACE =        6315725.60           LAND SURFACE =       -1022199.63
            SOIL ZONE =        9942920.29              SOIL ZONE =        1753866.05
     UNSATURATED ZONE =       -1959822.92       UNSATURATED ZONE =          56595.49
       SATURATED ZONE =       -9139162.14         SATURATED ZONE =         -41997.78
                LAKES =       -6189990.54                  LAKES =         562025.88

 OVERALL BUDGET ERROR =        1533271.53           BUDGET ERROR =         176073.01

  ***WARNING, FLUX RATES OFF > 3%

  PERCENT DISCREPANCY =              1.41    PERCENT DISCREPANCY =              5.66



1
 SUMMARY VOLUMETRIC BUDGET FOR GSFLOW 
 DATE: 12 09 1980              CUMULATIVE TIME STEP:      70
 MODFLOW STRESS PERIOD      1     CURRENT TIME STEP:      70     ITERATIONS:       3

 -----------------------------------------------------------------------------------

   CUMULATIVE VOLUMES               L**3   RATES FOR THIS TIME STEP           L**3/T
   ------------------                      ------------------------

                                     IN                                         IN
                                     --                                         --
        PRECIPITATION =        1.7882D+08          PRECIPITATION =                  
           STREAMFLOW =                               STREAMFLOW =                  
     GW BOUNDARY FLOW =                         GW BOUNDARY FLOW =                  


                                    OUT                                        OUT
                                    ---                                        ---
   EVAPOTRANSPIRATION =        9.2974D+07     EVAPOTRANSPIRATION =         386685.87
           STREAMFLOW =        2.0282D+07             STREAMFLOW =         420980.56
     GW BOUNDARY FLOW =                         GW BOUNDARY FLOW =                  

   INFLOWS - OUTFLOWS =        6.5567D+07     INFLOWS - OUTFLOWS =        -807666.43
             --------                                   --------

 TOTAL STORAGE CHANGE =        6.3712D+07         STORAGE CHANGE =        -824848.33
       --------------                             --------------
         LAND SURFACE =        5.0168D+07           LAND SURFACE =        -246649.42
            SOIL ZONE =        1.3107D+07              SOIL ZONE =        -140630.35
     UNSATURATED ZONE =       -1523919.06       UNSATURATED ZONE =          40026.37
       SATURATED ZONE =       -1.0110D+07         SATURATED ZONE =        -207505.19
                LAKES =        1.2071D+07                  LAKES =        -270089.75

 OVERALL BUDGET ERROR =        1855143.81           BUDGET ERROR =          17181.90


  PERCENT DISCREPANCY =              1.04    PERCENT DISCREPANCY =              2.10



1
 SUMMARY VOLUMETRIC BUDGET FOR GSFLOW 
 DATE: 12 16 1980              CUMULATIVE TIME STEP:      77
 MODFLOW STRESS PERIOD      1     CURRENT TIME STEP:      77     ITERATIONS:       3

 -----------------------------------------------------------------------------------

   CUMULATIVE VOLUMES               L**3   RATES FOR THIS TIME STEP           L**3/T
   ------------------                      ------------------------

                                     IN                                         IN
                                     --                                         --
        PRECIPITATION =        1.7882D+08          PRECIPITATION =                  
           STREAMFLOW =                               STREAMFLOW =                  
     GW BOUNDARY FLOW =                         GW BOUNDARY FLOW =                  


                                    OUT                                        OUT
                                    ---                                        ---
   EVAPOTRANSPIRATION =        9.9447D+07     EVAPOTRANSPIRATION =        1457720.42
           STREAMFLOW =        2.3263D+07             STREAMFLOW =         430698.91
     GW BOUNDARY FLOW =                         GW BOUNDARY FLOW =                  

   INFLOWS - OUTFLOWS =        5.6114D+07     INFLOWS - OUTFLOWS =       -1888419.33
             --------                                   --------

 TOTAL STORAGE CHANGE =        5.4069D+07         STORAGE CHANGE =       -1926303.12
       --------------                             --------------
         LAND SURFACE =        4.5744D+07           LAND SURFACE =       -1259208.96
            SOIL ZONE =        1.2796D+07              SOIL ZONE =         237906.07
     UNSATURATED ZONE =       -1377837.03       UNSATURATED ZONE =          20128.61
       SATURATED ZONE =       -1.1441D+07         SATURATED ZONE =        -168638.22
                LAKES =        8347863.31                  LAKES =        -756490.62

 OVERALL BUDGET ERROR =        2044534.97           BUDGET ERROR =          37883.79


  PERCENT DISCREPANCY =              1.15    PERCENT DISCREPANCY =              1.99



1
 SUMMARY VOLUMETRIC BUDGET FOR GSFLOW 
 DATE: 12 23 1980              CUMULATIVE TIME STEP:      84
 MODFLOW STRESS PERIOD      1     CURRENT TIME STEP:      84     ITERATIONS:       3

 -----------------------------------------------------------------------------------

   CUMULATIVE VOLUMES               L**3   RATES FOR THIS TIME STEP           L**3/T
   ------------------                      ------------------------

                                     IN                                         IN
                                     --                                         --
        PRECIPITATION =        1.8522D+08          PRECIPITATION =        3198161.89
           STREAMFLOW =                               STREAMFLOW =                  
     GW BOUNDARY FLOW =                         GW BOUNDARY FLOW =                  


                                    OUT                                        OUT
                                    ---                                        ---
   EVAPOTRANSPIRATION =        1.0782D+08     EVAPOTRANSPIRATION =        1096960.74
           STREAMFLOW =        2.6316D+07             STREAMFLOW =         443565.56
     GW BOUNDARY FLOW =                         GW BOUNDARY FLOW =                  

   INFLOWS - OUTFLOWS =        5.1083D+07     INFLOWS - OUTFLOWS =        1657635.59
             --------                                   --------

 TOTAL STORAGE CHANGE =        4.8721D+07         STORAGE CHANGE =        1507717.67
       --------------                             --------------
         LAND SURFACE =        4.0221D+07           LAND SURFACE =        -367739.36
            SOIL ZONE =        1.5774D+07              SOIL ZONE =        1371225.56
     UNSATURATED ZONE =       -1092824.11       UNSATURATED ZONE =          94422.52
       SATURATED ZONE =       -1.2355D+07         SATURATED ZONE =         -80737.01
                LAKES =        6174130.46                  LAKES =         490545.97

 OVERALL BUDGET ERROR =        2362211.28           BUDGET ERROR =         149917.92

  ***WARNING, FLUX RATES OFF > 3%

  PERCENT DISCREPANCY =              1.28    PERCENT DISCREPANCY =              4.80



1
 SUMMARY VOLUMETRIC BUDGET FOR GSFLOW 
 DATE: 12 30 1980              CUMULATIVE TIME STEP:      91
 MODFLOW STRESS PERIOD      1     CURRENT TIME STEP:      91     ITERATIONS:       4

 -----------------------------------------------------------------------------------

   CUMULATIVE VOLUMES               L**3   RATES FOR THIS TIME STEP           L**3/T
   ------------------                      ------------------------

                                     IN                                         IN
                                     --                                         --
        PRECIPITATION =        1.8522D+08          PRECIPITATION =                  
           STREAMFLOW =                               STREAMFLOW =                  
     GW BOUNDARY FLOW =                         GW BOUNDARY FLOW =                  


                                    OUT                                        OUT
                                    ---                                        ---
   EVAPOTRANSPIRATION =        1.1805D+08     EVAPOTRANSPIRATION =        1240471.40
           STREAMFLOW =        2.9399D+07             STREAMFLOW =         445279.78
     GW BOUNDARY FLOW =                         GW BOUNDARY FLOW =                  

   INFLOWS - OUTFLOWS =        3.7767D+07     INFLOWS - OUTFLOWS =       -1685751.18
             --------                                   --------

 TOTAL STORAGE CHANGE =        3.5245D+07         STORAGE CHANGE =       -1698450.70
       --------------                             --------------
         LAND SURFACE =        3.3989D+07           LAND SURFACE =        -561684.68
            SOIL ZONE =        1.3820D+07              SOIL ZONE =        -403942.47
     UNSATURATED ZONE =        -774728.99       UNSATURATED ZONE =          33879.43
       SATURATED ZONE =       -1.3409D+07         SATURATED ZONE =        -163195.86
                LAKES =        1621037.25                  LAKES =        -603507.12

 OVERALL BUDGET ERROR =        2521721.37           BUDGET ERROR =          12699.52


  PERCENT DISCREPANCY =              1.37    PERCENT DISCREPANCY =              0.75



1
 SUMMARY VOLUMETRIC BUDGET FOR GSFLOW 
 DATE: 01 06 1981              CUMULATIVE TIME STEP:      98
 MODFLOW STRESS PERIOD      1     CURRENT TIME STEP:      98     ITERATIONS:      14

 -----------------------------------------------------------------------------------

   CUMULATIVE VOLUMES               L**3   RATES FOR THIS TIME STEP           L**3/T
   ------------------                      ------------------------

                                     IN                                         IN
                                     --                                         --
        PRECIPITATION =        2.0923D+08          PRECIPITATION =                  
           STREAMFLOW =                               STREAMFLOW =                  
     GW BOUNDARY FLOW =                         GW BOUNDARY FLOW =                  


                                    OUT                                        OUT
                                    ---                                        ---
   EVAPOTRANSPIRATION =        1.2563D+08     EVAPOTRANSPIRATION =        1141256.29
           STREAMFLOW =        3.2519D+07             STREAMFLOW =         445540.84
     GW BOUNDARY FLOW =                         GW BOUNDARY FLOW =                  

   INFLOWS - OUTFLOWS =        5.1081D+07     INFLOWS - OUTFLOWS =       -1586797.13
             --------                                   --------

 TOTAL STORAGE CHANGE =        4.8460D+07         STORAGE CHANGE =       -1620551.93
       --------------                             --------------
         LAND SURFACE =        3.9010D+07           LAND SURFACE =        -361344.25
            SOIL ZONE =        1.7030D+07              SOIL ZONE =        -582752.62
     UNSATURATED ZONE =        -189446.52       UNSATURATED ZONE =          81132.48
       SATURATED ZONE =       -1.3972D+07         SATURATED ZONE =        -219971.47
                LAKES =        6580633.78                  LAKES =        -537616.06

 OVERALL BUDGET ERROR =        2620943.36           BUDGET ERROR =          33754.80


  PERCENT DISCREPANCY =              1.26    PERCENT DISCREPANCY =              2.10



1
 SUMMARY VOLUMETRIC BUDGET FOR GSFLOW 
 DATE: 01 13 1981              CUMULATIVE TIME STEP:     105
 MODFLOW STRESS PERIOD      1     CURRENT TIME STEP:     105     ITERATIONS:       3

 -----------------------------------------------------------------------------------

   CUMULATIVE VOLUMES               L**3   RATES FOR THIS TIME STEP           L**3/T
   ------------------                      ------------------------

                                     IN                                         IN
                                     --                                         --
        PRECIPITATION =        2.1223D+08          PRECIPITATION =                  
           STREAMFLOW =                               STREAMFLOW =                  
     GW BOUNDARY FLOW =                         GW BOUNDARY FLOW =                  


                                    OUT                                        OUT
                                    ---                                        ---
   EVAPOTRANSPIRATION =        1.3396D+08     EVAPOTRANSPIRATION =        1403824.46
           STREAMFLOW =        3.5650D+07             STREAMFLOW =         457521.16
     GW BOUNDARY FLOW =                         GW BOUNDARY FLOW =                  

   INFLOWS - OUTFLOWS =        4.2614D+07     INFLOWS - OUTFLOWS =       -1861345.61
             --------                                   --------

 TOTAL STORAGE CHANGE =        3.9859D+07         STORAGE CHANGE =       -1870834.33
       --------------                             --------------
         LAND SURFACE =        3.7468D+07           LAND SURFACE =        -472696.86
            SOIL ZONE =        1.4431D+07              SOIL ZONE =        -520240.70
     UNSATURATED ZONE =          87673.57       UNSATURATED ZONE =          23796.01
       SATURATED ZONE =       -1.5264D+07         SATURATED ZONE =        -180159.41
                LAKES =        3136570.09                  LAKES =        -721533.38

 OVERALL BUDGET ERROR =        2755244.40           BUDGET ERROR =           9488.71


  PERCENT DISCREPANCY =              1.31    PERCENT DISCREPANCY =              0.51



1
 SUMMARY VOLUMETRIC BUDGET FOR GSFLOW 
 DATE: 01 20 1981              CUMULATIVE TIME STEP:     112
 MODFLOW STRESS PERIOD      1     CURRENT TIME STEP:     112     ITERATIONS:      12

 -----------------------------------------------------------------------------------

   CUMULATIVE VOLUMES               L**3   RATES FOR THIS TIME STEP           L**3/T
   ------------------                      ------------------------

                                     IN                                         IN
                                     --                                         --
        PRECIPITATION =        2.2423D+08          PRECIPITATION =        6001392.59
           STREAMFLOW =                               STREAMFLOW =                  
     GW BOUNDARY FLOW =                         GW BOUNDARY FLOW =                  


                                    OUT                                        OUT
                                    ---                                        ---
   EVAPOTRANSPIRATION =        1.4498D+08     EVAPOTRANSPIRATION =        1812032.77
           STREAMFLOW =        3.9241D+07             STREAMFLOW =         485521.72
     GW BOUNDARY FLOW =                         GW BOUNDARY FLOW =                  

   INFLOWS - OUTFLOWS =        4.0007D+07     INFLOWS - OUTFLOWS =        3703838.10
             --------                                   --------

 TOTAL STORAGE CHANGE =        3.7026D+07         STORAGE CHANGE =        3594716.38
       --------------                             --------------
         LAND SURFACE =        3.4618D+07           LAND SURFACE =         551847.56
            SOIL ZONE =        1.5991D+07              SOIL ZONE =        1363859.57
     UNSATURATED ZONE =         522367.86       UNSATURATED ZONE =         135779.00
       SATURATED ZONE =       -1.5904D+07         SATURATED ZONE =          85718.62
                LAKES =        1799938.86                  LAKES =        1457511.62

 OVERALL BUDGET ERROR =        2981125.87           BUDGET ERROR =         109121.72


  PERCENT DISCREPANCY =              1.34    PERCENT DISCREPANCY =              1.83



1
 SUMMARY VOLUMETRIC BUDGET FOR GSFLOW 
 DATE: 01 27 1981              CUMULATIVE TIME STEP:     119
 MODFLOW STRESS PERIOD      1     CURRENT TIME STEP:     119     ITERATIONS:      15

 -----------------------------------------------------------------------------------

   CUMULATIVE VOLUMES               L**3   RATES FOR THIS TIME STEP           L**3/T
   ------------------                      ------------------------

                                     IN                                         IN
                                     --                                         --
        PRECIPITATION =        3.3525D+08          PRECIPITATION =        6.0014D+07
           STREAMFLOW =                               STREAMFLOW =                  
     GW BOUNDARY FLOW =                         GW BOUNDARY FLOW =                  


                                    OUT                                        OUT
                                    ---                                        ---
   EVAPOTRANSPIRATION =        1.5407D+08     EVAPOTRANSPIRATION =         663125.29
           STREAMFLOW =        4.1752D+07             STREAMFLOW =         345811.31
     GW BOUNDARY FLOW =                         GW BOUNDARY FLOW =                  

   INFLOWS - OUTFLOWS =        1.3943D+08     INFLOWS - OUTFLOWS =        5.9005D+07
             --------                                   --------

 TOTAL STORAGE CHANGE =        1.3631D+08         STORAGE CHANGE =        5.8966D+07
       --------------                             --------------
         LAND SURFACE =        1.0380D+08           LAND SURFACE =        4.0704D+07
            SOIL ZONE =        1.8074D+07              SOIL ZONE =        1754160.16
     UNSATURATED ZONE =        1201235.12       UNSATURATED ZONE =         120399.08
       SATURATED ZONE =       -1.6481D+07         SATURATED ZONE =          78805.86
                LAKES =        2.9715D+07                  LAKES =        1.6308D+07

 OVERALL BUDGET ERROR =        3123991.31           BUDGET ERROR =          38881.89


  PERCENT DISCREPANCY =              0.94    PERCENT DISCREPANCY =              0.06



1
 SUMMARY VOLUMETRIC BUDGET FOR GSFLOW 
 DATE: 02 03 1981              CUMULATIVE TIME STEP:     126
 MODFLOW STRESS PERIOD      1     CURRENT TIME STEP:     126     ITERATIONS:      21

 -----------------------------------------------------------------------------------

   CUMULATIVE VOLUMES               L**3   RATES FOR THIS TIME STEP           L**3/T
   ------------------                      ------------------------

                                     IN                                         IN
                                     --                                         --
        PRECIPITATION =        4.0137D+08          PRECIPITATION =                  
           STREAMFLOW =                               STREAMFLOW =                  
     GW BOUNDARY FLOW =                         GW BOUNDARY FLOW =                  


                                    OUT                                        OUT
                                    ---                                        ---
   EVAPOTRANSPIRATION =        1.5769D+08     EVAPOTRANSPIRATION =         897749.75
           STREAMFLOW =        4.4232D+07             STREAMFLOW =         354891.78
     GW BOUNDARY FLOW =                         GW BOUNDARY FLOW =                  

   INFLOWS - OUTFLOWS =        1.9944D+08     INFLOWS - OUTFLOWS =       -1252641.53
             --------                                   --------

 TOTAL STORAGE CHANGE =        1.9654D+08         STORAGE CHANGE =       -1277460.60
       --------------                             --------------
         LAND SURFACE =        1.5000D+08           LAND SURFACE =        -514046.87
            SOIL ZONE =        1.7075D+07              SOIL ZONE =        -141383.34
     UNSATURATED ZONE =        1624569.22       UNSATURATED ZONE =          30791.21
       SATURATED ZONE =       -1.7719D+07         SATURATED ZONE =        -175666.81
                LAKES =        4.5560D+07                  LAKES =        -477154.78

 OVERALL BUDGET ERROR =        2906303.76           BUDGET ERROR =          24819.07


  PERCENT DISCREPANCY =              0.73    PERCENT DISCREPANCY =              1.96



1
 SUMMARY VOLUMETRIC BUDGET FOR GSFLOW 
 DATE: 02 10 1981              CUMULATIVE TIME STEP:     133
 MODFLOW STRESS PERIOD      1     CURRENT TIME STEP:     133     ITERATIONS:       3

 -----------------------------------------------------------------------------------

   CUMULATIVE VOLUMES               L**3   RATES FOR THIS TIME STEP           L**3/T
   ------------------                      ------------------------

                                     IN                                         IN
                                     --                                         --
        PRECIPITATION =        4.1375D+08          PRECIPITATION =        3095932.43
           STREAMFLOW =                               STREAMFLOW =                  
     GW BOUNDARY FLOW =                         GW BOUNDARY FLOW =                  


                                    OUT                                        OUT
                                    ---                                        ---
   EVAPOTRANSPIRATION =        1.6309D+08     EVAPOTRANSPIRATION =         577879.06
           STREAMFLOW =        4.6626D+07             STREAMFLOW =         340304.91
     GW BOUNDARY FLOW =                         GW BOUNDARY FLOW =                  

   INFLOWS - OUTFLOWS =        2.0403D+08     INFLOWS - OUTFLOWS =        2177748.46
             --------                                   --------

 TOTAL STORAGE CHANGE =        2.0099D+08         STORAGE CHANGE =        2149985.99
       --------------                             --------------
         LAND SURFACE =        1.5542D+08           LAND SURFACE =        1647975.48
            SOIL ZONE =        1.6988D+07              SOIL ZONE =         193620.69
     UNSATURATED ZONE =        1701793.62       UNSATURATED ZONE =           8209.01
       SATURATED ZONE =       -1.8826D+07         SATURATED ZONE =        -150562.53
                LAKES =        4.5711D+07                  LAKES =         450743.34

 OVERALL BUDGET ERROR =        3043756.15           BUDGET ERROR =          27762.47


  PERCENT DISCREPANCY =              0.74    PERCENT DISCREPANCY =              0.90



1
 SUMMARY VOLUMETRIC BUDGET FOR GSFLOW 
 DATE: 02 17 1981              CUMULATIVE TIME STEP:     140
 MODFLOW STRESS PERIOD      1     CURRENT TIME STEP:     140     ITERATIONS:      32

 -----------------------------------------------------------------------------------

   CUMULATIVE VOLUMES               L**3   RATES FOR THIS TIME STEP           L**3/T
   ------------------                      ------------------------

                                     IN                                         IN
                                     --                                         --
        PRECIPITATION =        4.6328D+08          PRECIPITATION =                  
           STREAMFLOW =                               STREAMFLOW =                  
     GW BOUNDARY FLOW =                         GW BOUNDARY FLOW =                  


                                    OUT                                        OUT
                                    ---                                        ---
   EVAPOTRANSPIRATION =        1.7438D+08     EVAPOTRANSPIRATION =        2612618.77
           STREAMFLOW =        4.8976D+07             STREAMFLOW =         285389.16
     GW BOUNDARY FLOW =                         GW BOUNDARY FLOW =                  

   INFLOWS - OUTFLOWS =        2.3992D+08     INFLOWS - OUTFLOWS =       -2898007.93
             --------                                   --------

 TOTAL STORAGE CHANGE =        2.3625D+08         STORAGE CHANGE =       -2957890.27
       --------------                             --------------
         LAND SURFACE =        1.6983D+08           LAND SURFACE =       -2316327.39
            SOIL ZONE =        2.3847D+07              SOIL ZONE =         -56463.09
     UNSATURATED ZONE =        2735783.63       UNSATURATED ZONE =         187345.03
       SATURATED ZONE =       -1.8916D+07         SATURATED ZONE =        -127188.06
                LAKES =        5.8754D+07                  LAKES =        -645256.75

 OVERALL BUDGET ERROR =        3668653.26           BUDGET ERROR =          59882.34


  PERCENT DISCREPANCY =              0.80    PERCENT DISCREPANCY =              2.05



1
 SUMMARY VOLUMETRIC BUDGET FOR GSFLOW 
 DATE: 02 24 1981              CUMULATIVE TIME STEP:     147
 MODFLOW STRESS PERIOD      1     CURRENT TIME STEP:     147     ITERATIONS:      15

 -----------------------------------------------------------------------------------

   CUMULATIVE VOLUMES               L**3   RATES FOR THIS TIME STEP           L**3/T
   ------------------                      ------------------------

                                     IN                                         IN
                                     --                                         --
        PRECIPITATION =        4.8805D+08          PRECIPITATION =        1.8576D+07
           STREAMFLOW =                               STREAMFLOW =                  
     GW BOUNDARY FLOW =                         GW BOUNDARY FLOW =                  


                                    OUT                                        OUT
                                    ---                                        ---
   EVAPOTRANSPIRATION =        1.8775D+08     EVAPOTRANSPIRATION =        1355053.68
           STREAMFLOW =        5.0060D+07             STREAMFLOW =         143123.89
     GW BOUNDARY FLOW =                         GW BOUNDARY FLOW =                  

   INFLOWS - OUTFLOWS =        2.5024D+08     INFLOWS - OUTFLOWS =        1.7077D+07
             --------                                   --------

 TOTAL STORAGE CHANGE =        2.4610D+08         STORAGE CHANGE =        1.7033D+07
       --------------                             --------------
         LAND SURFACE =        1.6962D+08           LAND SURFACE =        1.0824D+07
            SOIL ZONE =        2.6076D+07              SOIL ZONE =         470164.40
     UNSATURATED ZONE =        1558566.89       UNSATURATED ZONE =         343297.55
       SATURATED ZONE =       -1.7097D+07         SATURATED ZONE =          48394.59
                LAKES =        6.5945D+07                  LAKES =        5347474.50

 OVERALL BUDGET ERROR =        4139257.50           BUDGET ERROR =          44346.46


  PERCENT DISCREPANCY =              0.85    PERCENT DISCREPANCY =              0.24



1
 SUMMARY VOLUMETRIC BUDGET FOR GSFLOW 
 DATE: 03 03 1981              CUMULATIVE TIME STEP:     154
 MODFLOW STRESS PERIOD      1     CURRENT TIME STEP:     154     ITERATIONS:      16

 -----------------------------------------------------------------------------------

   CUMULATIVE VOLUMES               L**3   RATES FOR THIS TIME STEP           L**3/T
   ------------------                      ------------------------

                                     IN                                         IN
                                     --                                         --
        PRECIPITATION =        5.0056D+08          PRECIPITATION =                  
           STREAMFLOW =                               STREAMFLOW =                  
     GW BOUNDARY FLOW =                         GW BOUNDARY FLOW =                  


                                    OUT                                        OUT
                                    ---                                        ---
   EVAPOTRANSPIRATION =        1.9627D+08     EVAPOTRANSPIRATION =        2160699.05
           STREAMFLOW =        5.1106D+07             STREAMFLOW =         161574.77
     GW BOUNDARY FLOW =                         GW BOUNDARY FLOW =                  

   INFLOWS - OUTFLOWS =        2.5319D+08     INFLOWS - OUTFLOWS =       -2322273.81
             --------                                   --------

 TOTAL STORAGE CHANGE =        2.4887D+08         STORAGE CHANGE =       -2345352.08
       --------------                             --------------
         LAND SURFACE =        1.7232D+08           LAND SURFACE =       -1112915.94
            SOIL ZONE =        2.4192D+07              SOIL ZONE =        -375976.19
     UNSATURATED ZONE =        2526228.20       UNSATURATED ZONE =          66143.96
       SATURATED ZONE =       -1.8334D+07         SATURATED ZONE =        -179127.41
                LAKES =        6.8164D+07                  LAKES =        -743476.50

 OVERALL BUDGET ERROR =        4316815.21           BUDGET ERROR =          23078.27


  PERCENT DISCREPANCY =              0.87    PERCENT DISCREPANCY =              0.99



1
 SUMMARY VOLUMETRIC BUDGET FOR GSFLOW 
 DATE: 03 10 1981              CUMULATIVE TIME STEP:     161
 MODFLOW STRESS PERIOD      1     CURRENT TIME STEP:     161     ITERATIONS:      42

 -----------------------------------------------------------------------------------

   CUMULATIVE VOLUMES               L**3   RATES FOR THIS TIME STEP           L**3/T
   ------------------                      ------------------------

                                     IN                                         IN
                                     --                                         --
        PRECIPITATION =        5.0378D+08          PRECIPITATION =        3221591.34
           STREAMFLOW =                               STREAMFLOW =                  
     GW BOUNDARY FLOW =                         GW BOUNDARY FLOW =                  


                                    OUT                                        OUT
                                    ---                                        ---
   EVAPOTRANSPIRATION =        2.1334D+08     EVAPOTRANSPIRATION =        1910880.83
           STREAMFLOW =        5.2250D+07             STREAMFLOW =         163871.41
     GW BOUNDARY FLOW =                         GW BOUNDARY FLOW =                  

   INFLOWS - OUTFLOWS =        2.3819D+08     INFLOWS - OUTFLOWS =        1146839.09
             --------                                   --------

 TOTAL STORAGE CHANGE =        2.3366D+08         STORAGE CHANGE =        1113720.88
       --------------                             --------------
         LAND SURFACE =        1.5960D+08           LAND SURFACE =       -1847354.72
            SOIL ZONE =        2.4732D+07              SOIL ZONE =        1270302.39
     UNSATURATED ZONE =        2988874.09       UNSATURATED ZONE =         158857.14
       SATURATED ZONE =       -1.8856D+07         SATURATED ZONE =         135916.20
                LAKES =        6.5192D+07                  LAKES =        1395999.88

 OVERALL BUDGET ERROR =        4530439.92           BUDGET ERROR =          33118.21


  PERCENT DISCREPANCY =              0.90    PERCENT DISCREPANCY =              1.03



1
 SUMMARY VOLUMETRIC BUDGET FOR GSFLOW 
 DATE: 03 17 1981              CUMULATIVE TIME STEP:     168
 MODFLOW STRESS PERIOD      1     CURRENT TIME STEP:     168     ITERATIONS:      33

 -----------------------------------------------------------------------------------

   CUMULATIVE VOLUMES               L**3   RATES FOR THIS TIME STEP           L**3/T
   ------------------                      ------------------------

                                     IN                                         IN
                                     --                                         --
        PRECIPITATION =        5.1345D+08          PRECIPITATION =        3221591.34
           STREAMFLOW =                               STREAMFLOW =                  
     GW BOUNDARY FLOW =                         GW BOUNDARY FLOW =                  


                                    OUT                                        OUT
                                    ---                                        ---
   EVAPOTRANSPIRATION =        2.2791D+08     EVAPOTRANSPIRATION =        1041970.13
           STREAMFLOW =        5.3446D+07             STREAMFLOW =         174561.34
     GW BOUNDARY FLOW =                         GW BOUNDARY FLOW =                  

   INFLOWS - OUTFLOWS =        2.3209D+08     INFLOWS - OUTFLOWS =        2005059.86
             --------                                   --------

 TOTAL STORAGE CHANGE =        2.2741D+08         STORAGE CHANGE =        1979818.28
       --------------                             --------------
         LAND SURFACE =        1.5550D+08           LAND SURFACE =        1505005.03
            SOIL ZONE =        2.3801D+07              SOIL ZONE =          25483.59
     UNSATURATED ZONE =        3582427.69       UNSATURATED ZONE =        -103495.83
       SATURATED ZONE =       -1.9576D+07         SATURATED ZONE =           1908.44
                LAKES =        6.4108D+07                  LAKES =         550917.06

 OVERALL BUDGET ERROR =        4678548.99           BUDGET ERROR =          25241.57


  PERCENT DISCREPANCY =              0.92    PERCENT DISCREPANCY =              0.79



1
 SUMMARY VOLUMETRIC BUDGET FOR GSFLOW 
 DATE: 03 24 1981              CUMULATIVE TIME STEP:     175
 MODFLOW STRESS PERIOD      1     CURRENT TIME STEP:     175     ITERATIONS:      21

 -----------------------------------------------------------------------------------

   CUMULATIVE VOLUMES               L**3   RATES FOR THIS TIME STEP           L**3/T
   ------------------                      ------------------------

                                     IN                                         IN
                                     --                                         --
        PRECIPITATION =        5.7144D+08          PRECIPITATION =        6443182.67
           STREAMFLOW =                               STREAMFLOW =                  
     GW BOUNDARY FLOW =                         GW BOUNDARY FLOW =                  


                                    OUT                                        OUT
                                    ---                                        ---
   EVAPOTRANSPIRATION =        2.4182D+08     EVAPOTRANSPIRATION =        1710095.73
           STREAMFLOW =        5.4582D+07             STREAMFLOW =         164598.83
     GW BOUNDARY FLOW =                         GW BOUNDARY FLOW =                  

   INFLOWS - OUTFLOWS =        2.7504D+08     INFLOWS - OUTFLOWS =        4568488.11
             --------                                   --------

 TOTAL STORAGE CHANGE =        2.7010D+08         STORAGE CHANGE =        4529880.79
       --------------                             --------------
         LAND SURFACE =        1.8290D+08           LAND SURFACE =        1419532.69
            SOIL ZONE =        2.6095D+07              SOIL ZONE =         785255.69
     UNSATURATED ZONE =        4502961.83       UNSATURATED ZONE =         179240.70
       SATURATED ZONE =       -2.0015D+07         SATURATED ZONE =          90683.45
                LAKES =        7.6623D+07                  LAKES =        2055168.25

 OVERALL BUDGET ERROR =        4935411.04           BUDGET ERROR =          38607.33


  PERCENT DISCREPANCY =              0.87    PERCENT DISCREPANCY =              0.60



1
 SUMMARY VOLUMETRIC BUDGET FOR GSFLOW 
 DATE: 03 31 1981              CUMULATIVE TIME STEP:     182
 MODFLOW STRESS PERIOD      1     CURRENT TIME STEP:     182     ITERATIONS:      28

 -----------------------------------------------------------------------------------

   CUMULATIVE VOLUMES               L**3   RATES FOR THIS TIME STEP           L**3/T
   ------------------                      ------------------------

                                     IN                                         IN
                                     --                                         --
        PRECIPITATION =        6.3587D+08          PRECIPITATION =        6443182.67
           STREAMFLOW =                               STREAMFLOW =                  
     GW BOUNDARY FLOW =                         GW BOUNDARY FLOW =                  


                                    OUT                                        OUT
                                    ---                                        ---
   EVAPOTRANSPIRATION =        2.5632D+08     EVAPOTRANSPIRATION =        1135570.25
           STREAMFLOW =        5.5754D+07             STREAMFLOW =         154066.64
     GW BOUNDARY FLOW =                         GW BOUNDARY FLOW =                  

   INFLOWS - OUTFLOWS =        3.2380D+08     INFLOWS - OUTFLOWS =        5153545.78
             --------                                   --------

 TOTAL STORAGE CHANGE =        3.1886D+08         STORAGE CHANGE =        5113814.16
       --------------                             --------------
         LAND SURFACE =        2.0791D+08           LAND SURFACE =        2593093.21
            SOIL ZONE =        2.7738D+07              SOIL ZONE =         491031.36
     UNSATURATED ZONE =        1375153.59       UNSATURATED ZONE =         179738.55
       SATURATED ZONE =       -1.6479D+07         SATURATED ZONE =         -32538.33
                LAKES =        9.8313D+07                  LAKES =        1882489.38

 OVERALL BUDGET ERROR =        4938794.56           BUDGET ERROR =          39731.61


  PERCENT DISCREPANCY =              0.78    PERCENT DISCREPANCY =              0.62



1
 SUMMARY VOLUMETRIC BUDGET FOR GSFLOW 
 DATE: 04 07 1981              CUMULATIVE TIME STEP:     189
 MODFLOW STRESS PERIOD      1     CURRENT TIME STEP:     189     ITERATIONS:      49

 -----------------------------------------------------------------------------------

   CUMULATIVE VOLUMES               L**3   RATES FOR THIS TIME STEP           L**3/T
   ------------------                      ------------------------

                                     IN                                         IN
                                     --                                         --
        PRECIPITATION =        6.5328D+08          PRECIPITATION =                  
           STREAMFLOW =                               STREAMFLOW =                  
     GW BOUNDARY FLOW =                         GW BOUNDARY FLOW =                  


                                    OUT                                        OUT
                                    ---                                        ---
   EVAPOTRANSPIRATION =        2.7945D+08     EVAPOTRANSPIRATION =        4246849.80
           STREAMFLOW =        5.6884D+07             STREAMFLOW =         203682.59
     GW BOUNDARY FLOW =                         GW BOUNDARY FLOW =                  

   INFLOWS - OUTFLOWS =        3.1695D+08     INFLOWS - OUTFLOWS =       -4450532.39
             --------                                   --------

 TOTAL STORAGE CHANGE =        3.1173D+08         STORAGE CHANGE =       -4477774.41
       --------------                             --------------
         LAND SURFACE =        1.8629D+08           LAND SURFACE =       -6808849.76
            SOIL ZONE =        2.8275D+07              SOIL ZONE =         -13009.18
     UNSATURATED ZONE =        3314131.98       UNSATURATED ZONE =         340121.55
       SATURATED ZONE =       -1.5188D+07         SATURATED ZONE =         293810.34
                LAKES =        1.0904D+08                  LAKES =        1710152.62

 OVERALL BUDGET ERROR =        5216843.78           BUDGET ERROR =          27242.02


  PERCENT DISCREPANCY =              0.80    PERCENT DISCREPANCY =              0.61



1
 SUMMARY VOLUMETRIC BUDGET FOR GSFLOW 
 DATE: 04 14 1981              CUMULATIVE TIME STEP:     196
 MODFLOW STRESS PERIOD      1     CURRENT TIME STEP:     196     ITERATIONS:      37

 -----------------------------------------------------------------------------------

   CUMULATIVE VOLUMES               L**3   RATES FOR THIS TIME STEP           L**3/T
   ------------------                      ------------------------

                                     IN                                         IN
                                     --                                         --
        PRECIPITATION =        6.5328D+08          PRECIPITATION =                  
           STREAMFLOW =                               STREAMFLOW =                  
     GW BOUNDARY FLOW =                         GW BOUNDARY FLOW =                  


                                    OUT                                        OUT
                                    ---                                        ---
   EVAPOTRANSPIRATION =        3.0927D+08     EVAPOTRANSPIRATION =        5171021.26
           STREAMFLOW =        5.8130D+07             STREAMFLOW =         172000.17
     GW BOUNDARY FLOW =                         GW BOUNDARY FLOW =                  

   INFLOWS - OUTFLOWS =        2.8588D+08     INFLOWS - OUTFLOWS =       -5343021.43
             --------                                   --------

 TOTAL STORAGE CHANGE =        2.8046D+08         STORAGE CHANGE =       -5366052.72
       --------------                             --------------
         LAND SURFACE =        1.4105D+08           LAND SURFACE =       -7353371.52
            SOIL ZONE =        2.3823D+07              SOIL ZONE =        -905530.16
     UNSATURATED ZONE =        5311159.26       UNSATURATED ZONE =         248576.78
       SATURATED ZONE =       -1.3532D+07         SATURATED ZONE =         268801.19
                LAKES =        1.2381D+08                  LAKES =        2375471.00

 OVERALL BUDGET ERROR =        5418648.83           BUDGET ERROR =          23031.29


  PERCENT DISCREPANCY =              0.83    PERCENT DISCREPANCY =              0.43



1
 SUMMARY VOLUMETRIC BUDGET FOR GSFLOW 
 DATE: 04 21 1981              CUMULATIVE TIME STEP:     203
 MODFLOW STRESS PERIOD      1     CURRENT TIME STEP:     203     ITERATIONS:      53

 -----------------------------------------------------------------------------------

   CUMULATIVE VOLUMES               L**3   RATES FOR THIS TIME STEP           L**3/T
   ------------------                      ------------------------

                                     IN                                         IN
                                     --                                         --
        PRECIPITATION =        6.7418D+08          PRECIPITATION =                  
           STREAMFLOW =                               STREAMFLOW =                  
     GW BOUNDARY FLOW =                         GW BOUNDARY FLOW =                  


                                    OUT                                        OUT
                                    ---                                        ---
   EVAPOTRANSPIRATION =        3.3937D+08     EVAPOTRANSPIRATION =        5676951.13
           STREAMFLOW =        5.9345D+07             STREAMFLOW =         169579.17
     GW BOUNDARY FLOW =                         GW BOUNDARY FLOW =                  

   INFLOWS - OUTFLOWS =        2.7546D+08     INFLOWS - OUTFLOWS =       -5846530.30
             --------                                   --------

 TOTAL STORAGE CHANGE =        2.7009D+08         STORAGE CHANGE =       -5850461.41
       --------------                             --------------
         LAND SURFACE =        1.1854D+08           LAND SURFACE =       -3228226.28
            SOIL ZONE =        2.1951D+07              SOIL ZONE =       -2078929.38
     UNSATURATED ZONE =        6412776.49       UNSATURATED ZONE =          91494.16
       SATURATED ZONE =       -1.3333D+07         SATURATED ZONE =         -37237.84
                LAKES =        1.3652D+08                  LAKES =        -597562.06

 OVERALL BUDGET ERROR =        5369317.67           BUDGET ERROR =           3931.11


  PERCENT DISCREPANCY =              0.80    PERCENT DISCREPANCY =              0.07



1
 SUMMARY VOLUMETRIC BUDGET FOR GSFLOW 
 DATE: 04 28 1981              CUMULATIVE TIME STEP:     210
 MODFLOW STRESS PERIOD      1     CURRENT TIME STEP:     210     ITERATIONS:      47

 -----------------------------------------------------------------------------------

   CUMULATIVE VOLUMES               L**3   RATES FOR THIS TIME STEP           L**3/T
   ------------------                      ------------------------

                                     IN                                         IN
                                     --                                         --
        PRECIPITATION =        6.8114D+08          PRECIPITATION =                  
           STREAMFLOW =                               STREAMFLOW =                  
     GW BOUNDARY FLOW =                         GW BOUNDARY FLOW =                  


                                    OUT                                        OUT
                                    ---                                        ---
   EVAPOTRANSPIRATION =        3.8077D+08     EVAPOTRANSPIRATION =        5632444.11
           STREAMFLOW =        6.0557D+07             STREAMFLOW =         169029.37
     GW BOUNDARY FLOW =                         GW BOUNDARY FLOW =                  

   INFLOWS - OUTFLOWS =        2.3982D+08     INFLOWS - OUTFLOWS =       -5801473.48
             --------                                   --------

 TOTAL STORAGE CHANGE =        2.3442D+08         STORAGE CHANGE =       -5798286.56
       --------------                             --------------
         LAND SURFACE =        9.3061D+07           LAND SURFACE =       -4036144.09
            SOIL ZONE =        1.1923D+07              SOIL ZONE =       -1674097.32
     UNSATURATED ZONE =        6488939.46       UNSATURATED ZONE =         -36625.18
       SATURATED ZONE =       -1.3191D+07         SATURATED ZONE =         113756.50
                LAKES =        1.3614D+08                  LAKES =        -165176.47

 OVERALL BUDGET ERROR =        5394002.35           BUDGET ERROR =          -3186.92


  PERCENT DISCREPANCY =              0.80    PERCENT DISCREPANCY =             -0.05



1
 SUMMARY VOLUMETRIC BUDGET FOR GSFLOW 
 DATE: 05 05 1981              CUMULATIVE TIME STEP:     217
 MODFLOW STRESS PERIOD      1     CURRENT TIME STEP:     217     ITERATIONS:      70

 -----------------------------------------------------------------------------------

   CUMULATIVE VOLUMES               L**3   RATES FOR THIS TIME STEP           L**3/T
   ------------------                      ------------------------

                                     IN                                         IN
                                     --                                         --
        PRECIPITATION =        6.8811D+08          PRECIPITATION =                  
           STREAMFLOW =                               STREAMFLOW =                  
     GW BOUNDARY FLOW =                         GW BOUNDARY FLOW =                  


                                    OUT                                        OUT
                                    ---                                        ---
   EVAPOTRANSPIRATION =        4.1879D+08     EVAPOTRANSPIRATION =        3777355.51
           STREAMFLOW =        6.1775D+07             STREAMFLOW =         173796.00
     GW BOUNDARY FLOW =                         GW BOUNDARY FLOW =                  

   INFLOWS - OUTFLOWS =        2.0754D+08     INFLOWS - OUTFLOWS =       -3951151.51
             --------                                   --------

 TOTAL STORAGE CHANGE =        2.0209D+08         STORAGE CHANGE =       -3956588.94
       --------------                             --------------
         LAND SURFACE =        6.7797D+07           LAND SURFACE =       -2954584.89
            SOIL ZONE =        5253101.90              SOIL ZONE =        -921658.88
     UNSATURATED ZONE =        5122889.13       UNSATURATED ZONE =         -70845.58
       SATURATED ZONE =       -1.2257D+07         SATURATED ZONE =         -12452.89
                LAKES =        1.3617D+08                  LAKES =           2953.31

 OVERALL BUDGET ERROR =        5452700.64           BUDGET ERROR =           5437.43


  PERCENT DISCREPANCY =              0.80    PERCENT DISCREPANCY =              0.14



1
 SUMMARY VOLUMETRIC BUDGET FOR GSFLOW 
 DATE: 05 12 1981              CUMULATIVE TIME STEP:     224
 MODFLOW STRESS PERIOD      1     CURRENT TIME STEP:     224     ITERATIONS:      62

 -----------------------------------------------------------------------------------

   CUMULATIVE VOLUMES               L**3   RATES FOR THIS TIME STEP           L**3/T
   ------------------                      ------------------------

                                     IN                                         IN
                                     --                                         --
        PRECIPITATION =        6.8811D+08          PRECIPITATION =                  
           STREAMFLOW =                               STREAMFLOW =                  
     GW BOUNDARY FLOW =                         GW BOUNDARY FLOW =                  


                                    OUT                                        OUT
                                    ---                                        ---
   EVAPOTRANSPIRATION =        4.4716D+08     EVAPOTRANSPIRATION =        4487434.95
           STREAMFLOW =        6.2972D+07             STREAMFLOW =         168853.17
     GW BOUNDARY FLOW =                         GW BOUNDARY FLOW =                  

   INFLOWS - OUTFLOWS =        1.7798D+08     INFLOWS - OUTFLOWS =       -4656288.12
             --------                                   --------

 TOTAL STORAGE CHANGE =        1.7253D+08         STORAGE CHANGE =       -4655414.64
       --------------                             --------------
         LAND SURFACE =        4.4652D+07           LAND SURFACE =       -3401591.13
            SOIL ZONE =       -1386817.93              SOIL ZONE =        -952957.37
     UNSATURATED ZONE =        3088020.14       UNSATURATED ZONE =        -839093.17
       SATURATED ZONE =       -1.1003D+07         SATURATED ZONE =         540238.00
                LAKES =        1.3718D+08                  LAKES =          -2010.96

 OVERALL BUDGET ERROR =        5452482.18           BUDGET ERROR =           -873.48


  PERCENT DISCREPANCY =              0.80    PERCENT DISCREPANCY =             -0.02



1
 SUMMARY VOLUMETRIC BUDGET FOR GSFLOW 
 DATE: 05 19 1981              CUMULATIVE TIME STEP:     231
 MODFLOW STRESS PERIOD      1     CURRENT TIME STEP:     231     ITERATIONS:      42

 -----------------------------------------------------------------------------------

   CUMULATIVE VOLUMES               L**3   RATES FOR THIS TIME STEP           L**3/T
   ------------------                      ------------------------

                                     IN                                         IN
                                     --                                         --
        PRECIPITATION =        7.4671D+08          PRECIPITATION =        3447112.78
           STREAMFLOW =                               STREAMFLOW =                  
     GW BOUNDARY FLOW =                         GW BOUNDARY FLOW =                  


                                    OUT                                        OUT
                                    ---                                        ---
   EVAPOTRANSPIRATION =        4.6525D+08     EVAPOTRANSPIRATION =        1758794.68
           STREAMFLOW =        6.4162D+07             STREAMFLOW =         172527.06
     GW BOUNDARY FLOW =                         GW BOUNDARY FLOW =                  

   INFLOWS - OUTFLOWS =        2.1730D+08     INFLOWS - OUTFLOWS =        1515791.04
             --------                                   --------

 TOTAL STORAGE CHANGE =        2.1203D+08         STORAGE CHANGE =        1506359.91
       --------------                             --------------
         LAND SURFACE =        4.8302D+07           LAND SURFACE =       -3469349.29
            SOIL ZONE =        1.0091D+07              SOIL ZONE =        2136381.03
     UNSATURATED ZONE =        2908642.38       UNSATURATED ZONE =         -16302.22
       SATURATED ZONE =       -1.0547D+07         SATURATED ZONE =          72522.64
                LAKES =        1.6128D+08                  LAKES =        2783107.75

 OVERALL BUDGET ERROR =        5267365.46           BUDGET ERROR =           9431.12


  PERCENT DISCREPANCY =              0.71    PERCENT DISCREPANCY =              0.27



1
 SUMMARY VOLUMETRIC BUDGET FOR GSFLOW 
 DATE: 05 26 1981              CUMULATIVE TIME STEP:     238
 MODFLOW STRESS PERIOD      1     CURRENT TIME STEP:     238     ITERATIONS:      16

 -----------------------------------------------------------------------------------

   CUMULATIVE VOLUMES               L**3   RATES FOR THIS TIME STEP           L**3/T
   ------------------                      ------------------------

                                     IN                                         IN
                                     --                                         --
        PRECIPITATION =        7.7429D+08          PRECIPITATION =        1.7236D+07
           STREAMFLOW =                               STREAMFLOW =                  
     GW BOUNDARY FLOW =                         GW BOUNDARY FLOW =                  


                                    OUT                                        OUT
                                    ---                                        ---
   EVAPOTRANSPIRATION =        4.9677D+08     EVAPOTRANSPIRATION =        2648372.32
           STREAMFLOW =        6.5363D+07             STREAMFLOW =         180466.05
     GW BOUNDARY FLOW =                         GW BOUNDARY FLOW =                  

   INFLOWS - OUTFLOWS =        2.1216D+08     INFLOWS - OUTFLOWS =        1.4407D+07
             --------                                   --------

 TOTAL STORAGE CHANGE =        2.0642D+08         STORAGE CHANGE =        1.4233D+07
       --------------                             --------------
         LAND SURFACE =        3.1890D+07           LAND SURFACE =        -275022.78
            SOIL ZONE =        8659530.25              SOIL ZONE =        4715889.25
     UNSATURATED ZONE =        2744178.13       UNSATURATED ZONE =          12752.43
       SATURATED ZONE =       -1.0098D+07         SATURATED ZONE =         558291.69
                LAKES =        1.7322D+08                  LAKES =        9221010.00

 OVERALL BUDGET ERROR =        5736936.62           BUDGET ERROR =         173804.69


  PERCENT DISCREPANCY =              0.74    PERCENT DISCREPANCY =              1.01



1
 SUMMARY VOLUMETRIC BUDGET FOR GSFLOW 
 DATE: 06 02 1981              CUMULATIVE TIME STEP:     245
 MODFLOW STRESS PERIOD      1     CURRENT TIME STEP:     245     ITERATIONS:      65

 -----------------------------------------------------------------------------------

   CUMULATIVE VOLUMES               L**3   RATES FOR THIS TIME STEP           L**3/T
   ------------------                      ------------------------

                                     IN                                         IN
                                     --                                         --
        PRECIPITATION =        7.7429D+08          PRECIPITATION =                  
           STREAMFLOW =                               STREAMFLOW =                  
     GW BOUNDARY FLOW =                         GW BOUNDARY FLOW =                  


                                    OUT                                        OUT
                                    ---                                        ---
   EVAPOTRANSPIRATION =        5.3770D+08     EVAPOTRANSPIRATION =        5802349.13
           STREAMFLOW =        6.6583D+07             STREAMFLOW =         178725.95
     GW BOUNDARY FLOW =                         GW BOUNDARY FLOW =                  

   INFLOWS - OUTFLOWS =        1.7001D+08     INFLOWS - OUTFLOWS =       -5981075.08
             --------                                   --------

 TOTAL STORAGE CHANGE =        1.6423D+08         STORAGE CHANGE =       -5985941.89
       --------------                             --------------
         LAND SURFACE =        1.9162D+07           LAND SURFACE =       -1524432.06
            SOIL ZONE =       -7613948.92              SOIL ZONE =       -1966493.37
     UNSATURATED ZONE =       -1848487.88       UNSATURATED ZONE =        -125232.70
       SATURATED ZONE =       -8521025.81         SATURATED ZONE =        -221861.02
                LAKES =        1.6305D+08                  LAKES =       -2147922.75

 OVERALL BUDGET ERROR =        5779125.84           BUDGET ERROR =           4866.81


  PERCENT DISCREPANCY =              0.75    PERCENT DISCREPANCY =              0.08



1
 SUMMARY VOLUMETRIC BUDGET FOR GSFLOW 
 DATE: 06 09 1981              CUMULATIVE TIME STEP:     252
 MODFLOW STRESS PERIOD      1     CURRENT TIME STEP:     252     ITERATIONS:      49

 -----------------------------------------------------------------------------------

   CUMULATIVE VOLUMES               L**3   RATES FOR THIS TIME STEP           L**3/T
   ------------------                      ------------------------

                                     IN                                         IN
                                     --                                         --
        PRECIPITATION =        7.7752D+08          PRECIPITATION =                  
           STREAMFLOW =                               STREAMFLOW =                  
     GW BOUNDARY FLOW =                         GW BOUNDARY FLOW =                  


                                    OUT                                        OUT
                                    ---                                        ---
   EVAPOTRANSPIRATION =        5.7452D+08     EVAPOTRANSPIRATION =        5413218.27
           STREAMFLOW =        6.7827D+07             STREAMFLOW =         203133.83
     GW BOUNDARY FLOW =                         GW BOUNDARY FLOW =                  

   INFLOWS - OUTFLOWS =        1.3518D+08     INFLOWS - OUTFLOWS =       -5616352.10
             --------                                   --------

 TOTAL STORAGE CHANGE =        1.2937D+08         STORAGE CHANGE =       -5623300.98
       --------------                             --------------
         LAND SURFACE =        9796535.76           LAND SURFACE =        -964195.81
            SOIL ZONE =       -1.8503D+07              SOIL ZONE =       -1819615.90
     UNSATURATED ZONE =       -2676407.80       UNSATURATED ZONE =        -125804.51
       SATURATED ZONE =       -9753715.48         SATURATED ZONE =        -221564.00
                LAKES =        1.5051D+08                  LAKES =       -2492120.75

 OVERALL BUDGET ERROR =        5806635.16           BUDGET ERROR =           6948.88


  PERCENT DISCREPANCY =              0.75    PERCENT DISCREPANCY =              0.12



1
 SUMMARY VOLUMETRIC BUDGET FOR GSFLOW 
 DATE: 06 16 1981              CUMULATIVE TIME STEP:     259
 MODFLOW STRESS PERIOD      1     CURRENT TIME STEP:     259     ITERATIONS:      29

 -----------------------------------------------------------------------------------

   CUMULATIVE VOLUMES               L**3   RATES FOR THIS TIME STEP           L**3/T
   ------------------                      ------------------------

                                     IN                                         IN
                                     --                                         --
        PRECIPITATION =        7.7752D+08          PRECIPITATION =                  
           STREAMFLOW =                               STREAMFLOW =                  
     GW BOUNDARY FLOW =                         GW BOUNDARY FLOW =                  


                                    OUT                                        OUT
                                    ---                                        ---
   EVAPOTRANSPIRATION =        6.0221D+08     EVAPOTRANSPIRATION =        4684624.35
           STREAMFLOW =        7.0935D+07             STREAMFLOW =         702199.94
     GW BOUNDARY FLOW =                         GW BOUNDARY FLOW =                  

   INFLOWS - OUTFLOWS =        1.0438D+08     INFLOWS - OUTFLOWS =       -5386824.29
             --------                                   --------

 TOTAL STORAGE CHANGE =        9.8558D+07         STORAGE CHANGE =       -5387456.94
[...]
           STREAMFLOW =        1.6168D+09             STREAMFLOW =        4966705.50
     GW BOUNDARY FLOW =                         GW BOUNDARY FLOW =                  

   INFLOWS - OUTFLOWS =        1.0335D+09     INFLOWS - OUTFLOWS =        1138200.69
             --------                                   --------

 TOTAL STORAGE CHANGE =        1.0019D+09         STORAGE CHANGE =        1126859.01
       --------------                             --------------
         LAND SURFACE =        3.3540D+08           LAND SURFACE =        4606953.51
            SOIL ZONE =        5171544.96              SOIL ZONE =         -70346.60
     UNSATURATED ZONE =        1019671.98       UNSATURATED ZONE =          28002.18
       SATURATED ZONE =       -5.4726D+07         SATURATED ZONE =        -172862.83
                LAKES =        7.1507D+08                  LAKES =       -3264887.25

 OVERALL BUDGET ERROR =        3.1595D+07           BUDGET ERROR =          11341.68


  PERCENT DISCREPANCY =              0.57    PERCENT DISCREPANCY =              0.18



1
 SUMMARY VOLUMETRIC BUDGET FOR GSFLOW 
 DATE: 12 06 1983              CUMULATIVE TIME STEP:    1162
 MODFLOW STRESS PERIOD      1     CURRENT TIME STEP:    1162     ITERATIONS:       6

 -----------------------------------------------------------------------------------

   CUMULATIVE VOLUMES               L**3   RATES FOR THIS TIME STEP           L**3/T
   ------------------                      ------------------------

                                     IN                                         IN
                                     --                                         --
        PRECIPITATION =        5.6038D+09          PRECIPITATION =        3198161.89
           STREAMFLOW =                               STREAMFLOW =                  
     GW BOUNDARY FLOW =                         GW BOUNDARY FLOW =                  


                                    OUT                                        OUT
                                    ---                                        ---
   EVAPOTRANSPIRATION =        2.8996D+09     EVAPOTRANSPIRATION =         185740.54
           STREAMFLOW =        1.6522D+09             STREAMFLOW =        5064639.00
     GW BOUNDARY FLOW =                         GW BOUNDARY FLOW =                  

   INFLOWS - OUTFLOWS =        1.0520D+09     INFLOWS - OUTFLOWS =       -2052217.65
             --------                                   --------

 TOTAL STORAGE CHANGE =        1.0201D+09         STORAGE CHANGE =       -2081609.10
       --------------                             --------------
         LAND SURFACE =        3.7376D+08           LAND SURFACE =        2296320.51
            SOIL ZONE =        5736575.62              SOIL ZONE =        -131633.06
     UNSATURATED ZONE =        1304986.55       UNSATURATED ZONE =          26452.39
       SATURATED ZONE =       -5.5759D+07         SATURATED ZONE =        -162449.94
                LAKES =        6.9507D+08                  LAKES =       -4110299.00

 OVERALL BUDGET ERROR =        3.1863D+07           BUDGET ERROR =          29391.45


  PERCENT DISCREPANCY =              0.57    PERCENT DISCREPANCY =              0.56



1
 SUMMARY VOLUMETRIC BUDGET FOR GSFLOW 
 DATE: 12 13 1983              CUMULATIVE TIME STEP:    1169
 MODFLOW STRESS PERIOD      1     CURRENT TIME STEP:    1169     ITERATIONS:      12

 -----------------------------------------------------------------------------------

   CUMULATIVE VOLUMES               L**3   RATES FOR THIS TIME STEP           L**3/T
   ------------------                      ------------------------

                                     IN                                         IN
                                     --                                         --
        PRECIPITATION =        5.6998D+09          PRECIPITATION =        9594484.95
           STREAMFLOW =                               STREAMFLOW =                  
     GW BOUNDARY FLOW =                         GW BOUNDARY FLOW =                  


                                    OUT                                        OUT
                                    ---                                        ---
   EVAPOTRANSPIRATION =        2.9033D+09     EVAPOTRANSPIRATION =         226579.75
           STREAMFLOW =        1.6892D+09             STREAMFLOW =        5260512.00
     GW BOUNDARY FLOW =                         GW BOUNDARY FLOW =                  

   INFLOWS - OUTFLOWS =        1.1072D+09     INFLOWS - OUTFLOWS =        4107393.19
             --------                                   --------

 TOTAL STORAGE CHANGE =        1.0751D+09         STORAGE CHANGE =        4070725.12
       --------------                             --------------
         LAND SURFACE =        4.3778D+08           LAND SURFACE =        7019560.16
            SOIL ZONE =        6982901.42              SOIL ZONE =        -183850.10
     UNSATURATED ZONE =        1677814.19       UNSATURATED ZONE =          43949.88
       SATURATED ZONE =       -5.6378D+07         SATURATED ZONE =        -179518.81
                LAKES =        6.8501D+08                  LAKES =       -2629416.00

 OVERALL BUDGET ERROR =        3.2149D+07           BUDGET ERROR =          36668.07


  PERCENT DISCREPANCY =              0.57    PERCENT DISCREPANCY =              0.38



1
 SUMMARY VOLUMETRIC BUDGET FOR GSFLOW 
 DATE: 12 20 1983              CUMULATIVE TIME STEP:    1176
 MODFLOW STRESS PERIOD      1     CURRENT TIME STEP:    1176     ITERATIONS:       3

 -----------------------------------------------------------------------------------

   CUMULATIVE VOLUMES               L**3   RATES FOR THIS TIME STEP           L**3/T
   ------------------                      ------------------------

                                     IN                                         IN
                                     --                                         --
        PRECIPITATION =        5.7158D+09          PRECIPITATION =                  
           STREAMFLOW =                               STREAMFLOW =                  
     GW BOUNDARY FLOW =                         GW BOUNDARY FLOW =                  


                                    OUT                                        OUT
                                    ---                                        ---
   EVAPOTRANSPIRATION =        2.9112D+09     EVAPOTRANSPIRATION =         347191.89
           STREAMFLOW =        1.7277D+09             STREAMFLOW =        5578472.50
     GW BOUNDARY FLOW =                         GW BOUNDARY FLOW =                  

   INFLOWS - OUTFLOWS =        1.0769D+09     INFLOWS - OUTFLOWS =       -5925664.39
             --------                                   --------

 TOTAL STORAGE CHANGE =        1.0444D+09         STORAGE CHANGE =       -5949166.42
       --------------                             --------------
         LAND SURFACE =        4.4092D+08           LAND SURFACE =        -229898.36
            SOIL ZONE =        7720774.59              SOIL ZONE =        -180172.81
     UNSATURATED ZONE =        2171532.99       UNSATURATED ZONE =          43490.24
       SATURATED ZONE =       -5.7368D+07         SATURATED ZONE =        -179439.48
                LAKES =        6.5093D+08                  LAKES =       -5403146.00

 OVERALL BUDGET ERROR =        3.2504D+07           BUDGET ERROR =          23502.03


  PERCENT DISCREPANCY =              0.57    PERCENT DISCREPANCY =              0.40



1
 SUMMARY VOLUMETRIC BUDGET FOR GSFLOW 
 DATE: 12 27 1983              CUMULATIVE TIME STEP:    1183
 MODFLOW STRESS PERIOD      1     CURRENT TIME STEP:    1183     ITERATIONS:      29

 -----------------------------------------------------------------------------------

   CUMULATIVE VOLUMES               L**3   RATES FOR THIS TIME STEP           L**3/T
   ------------------                      ------------------------

                                     IN                                         IN
                                     --                                         --
        PRECIPITATION =        5.8917D+09          PRECIPITATION =        9594484.95
           STREAMFLOW =                               STREAMFLOW =                  
     GW BOUNDARY FLOW =                         GW BOUNDARY FLOW =                  


                                    OUT                                        OUT
                                    ---                                        ---
   EVAPOTRANSPIRATION =        2.9134D+09     EVAPOTRANSPIRATION =         396840.80
           STREAMFLOW =        1.7667D+09             STREAMFLOW =        5677393.00
     GW BOUNDARY FLOW =                         GW BOUNDARY FLOW =                  

   INFLOWS - OUTFLOWS =        1.2115D+09     INFLOWS - OUTFLOWS =        3520251.15
             --------                                   --------

 TOTAL STORAGE CHANGE =        1.1788D+09         STORAGE CHANGE =        3461349.29
       --------------                             --------------
         LAND SURFACE =        5.6571D+08           LAND SURFACE =        5841371.54
            SOIL ZONE =        8454383.76              SOIL ZONE =         227937.31
     UNSATURATED ZONE =        2443218.55       UNSATURATED ZONE =          96724.47
       SATURATED ZONE =       -5.7966D+07         SATURATED ZONE =         -87800.53
                LAKES =        6.6011D+08                  LAKES =       -2616883.50

 OVERALL BUDGET ERROR =        3.2780D+07           BUDGET ERROR =          58901.86


  PERCENT DISCREPANCY =              0.56    PERCENT DISCREPANCY =              0.62



1
 SUMMARY VOLUMETRIC BUDGET FOR GSFLOW 
 DATE: 01 03 1984              CUMULATIVE TIME STEP:    1190
 MODFLOW STRESS PERIOD      1     CURRENT TIME STEP:    1190     ITERATIONS:       6

 -----------------------------------------------------------------------------------

   CUMULATIVE VOLUMES               L**3   RATES FOR THIS TIME STEP           L**3/T
   ------------------                      ------------------------

                                     IN                                         IN
                                     --                                         --
        PRECIPITATION =        5.9235D+09          PRECIPITATION =                  
           STREAMFLOW =                               STREAMFLOW =                  
     GW BOUNDARY FLOW =                         GW BOUNDARY FLOW =                  


                                    OUT                                        OUT
                                    ---                                        ---
   EVAPOTRANSPIRATION =        2.9198D+09     EVAPOTRANSPIRATION =        1448723.73
           STREAMFLOW =        1.8063D+09             STREAMFLOW =        5603065.50
     GW BOUNDARY FLOW =                         GW BOUNDARY FLOW =                  

   INFLOWS - OUTFLOWS =        1.1973D+09     INFLOWS - OUTFLOWS =       -7051789.23
             --------                                   --------

 TOTAL STORAGE CHANGE =        1.1641D+09         STORAGE CHANGE =       -7076526.91
       --------------                             --------------
         LAND SURFACE =        5.7870D+08           LAND SURFACE =        -976138.39
            SOIL ZONE =        9166250.33              SOIL ZONE =        -188006.64
     UNSATURATED ZONE =        2997687.54       UNSATURATED ZONE =          35830.00
       SATURATED ZONE =       -5.8835D+07         SATURATED ZONE =        -183491.88
                LAKES =        6.3211D+08                  LAKES =       -5764720.00

 OVERALL BUDGET ERROR =        3.3203D+07           BUDGET ERROR =          24737.69


  PERCENT DISCREPANCY =              0.56    PERCENT DISCREPANCY =              0.35



1
 SUMMARY VOLUMETRIC BUDGET FOR GSFLOW 
 DATE: 01 10 1984              CUMULATIVE TIME STEP:    1197
 MODFLOW STRESS PERIOD      1     CURRENT TIME STEP:    1197     ITERATIONS:       8

 -----------------------------------------------------------------------------------

   CUMULATIVE VOLUMES               L**3   RATES FOR THIS TIME STEP           L**3/T
   ------------------                      ------------------------

                                     IN                                         IN
                                     --                                         --
        PRECIPITATION =        5.9235D+09          PRECIPITATION =                  
           STREAMFLOW =                               STREAMFLOW =                  
     GW BOUNDARY FLOW =                         GW BOUNDARY FLOW =                  


                                    OUT                                        OUT
                                    ---                                        ---
   EVAPOTRANSPIRATION =        2.9322D+09     EVAPOTRANSPIRATION =        1727889.68
           STREAMFLOW =        1.8438D+09             STREAMFLOW =        5235932.00
     GW BOUNDARY FLOW =                         GW BOUNDARY FLOW =                  

   INFLOWS - OUTFLOWS =        1.1475D+09     INFLOWS - OUTFLOWS =       -6963821.68
             --------                                   --------

 TOTAL STORAGE CHANGE =        1.1140D+09         STORAGE CHANGE =       -7010095.81
       --------------                             --------------
         LAND SURFACE =        5.6643D+08           LAND SURFACE =       -2016428.23
            SOIL ZONE =        1.0289D+07              SOIL ZONE =         296141.62
     UNSATURATED ZONE =        3350188.44       UNSATURATED ZONE =          73867.43
       SATURATED ZONE =       -5.9606D+07         SATURATED ZONE =         -67014.63
                LAKES =        5.9357D+08                  LAKES =       -5296662.00

 OVERALL BUDGET ERROR =        3.3440D+07           BUDGET ERROR =          46274.13


  PERCENT DISCREPANCY =              0.57    PERCENT DISCREPANCY =              0.66



1
 SUMMARY VOLUMETRIC BUDGET FOR GSFLOW 
 DATE: 01 17 1984              CUMULATIVE TIME STEP:    1204
 MODFLOW STRESS PERIOD      1     CURRENT TIME STEP:    1204     ITERATIONS:       3

 -----------------------------------------------------------------------------------

   CUMULATIVE VOLUMES               L**3   RATES FOR THIS TIME STEP           L**3/T
   ------------------                      ------------------------

                                     IN                                         IN
                                     --                                         --
        PRECIPITATION =        5.9475D+09          PRECIPITATION =                  
           STREAMFLOW =                               STREAMFLOW =                  
     GW BOUNDARY FLOW =                         GW BOUNDARY FLOW =                  


                                    OUT                                        OUT
                                    ---                                        ---
   EVAPOTRANSPIRATION =        2.9360D+09     EVAPOTRANSPIRATION =         514531.22
           STREAMFLOW =        1.8795D+09             STREAMFLOW =        5015583.00
     GW BOUNDARY FLOW =                         GW BOUNDARY FLOW =                  

   INFLOWS - OUTFLOWS =        1.1320D+09     INFLOWS - OUTFLOWS =       -5530114.22
             --------                                   --------

 TOTAL STORAGE CHANGE =        1.0985D+09         STORAGE CHANGE =       -5544161.28
       --------------                             --------------
         LAND SURFACE =        5.8186D+08           LAND SURFACE =        -369940.34
            SOIL ZONE =        9283870.98              SOIL ZONE =        -101392.51
     UNSATURATED ZONE =        3427722.87       UNSATURATED ZONE =          -4637.28
       SATURATED ZONE =       -6.0640D+07         SATURATED ZONE =        -152835.16
                LAKES =        5.6456D+08                  LAKES =       -4915356.00

 OVERALL BUDGET ERROR =        3.3514D+07           BUDGET ERROR =          14047.06


  PERCENT DISCREPANCY =              0.57    PERCENT DISCREPANCY =              0.25



1
 SUMMARY VOLUMETRIC BUDGET FOR GSFLOW 
 DATE: 01 24 1984              CUMULATIVE TIME STEP:    1211
 MODFLOW STRESS PERIOD      1     CURRENT TIME STEP:    1211     ITERATIONS:       9

 -----------------------------------------------------------------------------------

   CUMULATIVE VOLUMES               L**3   RATES FOR THIS TIME STEP           L**3/T
   ------------------                      ------------------------

                                     IN                                         IN
                                     --                                         --
        PRECIPITATION =        5.9535D+09          PRECIPITATION =                  
           STREAMFLOW =                               STREAMFLOW =                  
     GW BOUNDARY FLOW =                         GW BOUNDARY FLOW =                  


                                    OUT                                        OUT
                                    ---                                        ---
   EVAPOTRANSPIRATION =        2.9414D+09     EVAPOTRANSPIRATION =        1048090.05
           STREAMFLOW =        1.9143D+09             STREAMFLOW =        4917688.50
     GW BOUNDARY FLOW =                         GW BOUNDARY FLOW =                  

   INFLOWS - OUTFLOWS =        1.0978D+09     INFLOWS - OUTFLOWS =       -5965778.55
             --------                                   --------

 TOTAL STORAGE CHANGE =        1.0642D+09         STORAGE CHANGE =       -5972491.09
       --------------                             --------------
         LAND SURFACE =        5.8317D+08           LAND SURFACE =        -583964.56
            SOIL ZONE =        8745335.51              SOIL ZONE =         -66291.89
     UNSATURATED ZONE =        3225438.75       UNSATURATED ZONE =         -41786.27
       SATURATED ZONE =       -6.1630D+07         SATURATED ZONE =        -137221.88
                LAKES =        5.3070D+08                  LAKES =       -5143226.50

 OVERALL BUDGET ERROR =        3.3593D+07           BUDGET ERROR =           6712.54


  PERCENT DISCREPANCY =              0.57    PERCENT DISCREPANCY =              0.11



 Number of time steps:   1217;  Number of non-convergence:   0
 MF iterations:         22448;  SZ iterations:           22489
 Average MF iterations: 18.45;  Average SZ iterations:   18.48
 Maximum MF iterations:   139;  Maximum SZ iterations:     139

MF iteration distribution:      0   26   78   87   78   49   35   46   40   38
                               36   33   55   51   25   41   21   15   31   20
                               23   12   16    8   20   26   16   19   24   10
                               10   10   14    8   25    7   23    6   14    5
                               10    8   10    6    3    9    5   10    5    4
                                3    6    4    7    1    1    2    0    0    1
                                2    2    2    0    1    1    0    0    1    2
                                1    0    0    0    0    1    2    0    0    6

SZ computation distribution:    0   24   80   86   79   47   36   45   40   40
                               36   31   55   48   28   36   27   15   26   24
                               24   12   17    8   20   26   16   19   24   10
                               10   10   14    8   25    7   23    6   14    5
                               10    8   10    6    3    9    5   10    4    5
                                3    6    4    7    1    1    2    0    0    1
                                2    2    2    0    1    1    0    0    1    2
                                1    0    0    0    0    1    2    0    0    6

