1
 SUMMARY VOLUMETRIC BUDGET FOR GSFLOW 
 DATE: 10 07 1980              CUMULATIVE TIME STEP:       7
 MODFLOW STRESS PERIOD      1     CURRENT TIME STEP:       7     ITERATIONS:      14

 -----------------------------------------------------------------------------------

   CUMULATIVE VOLUMES               L**3   RATES FOR THIS TIME STEP           L**3/T
   ------------------                      ------------------------

                                     IN                                         IN
                                     --                                         --
        PRECIPITATION =                            PRECIPITATION =                  
           STREAMFLOW =                               STREAMFLOW =                  
     GW BOUNDARY FLOW =                         GW BOUNDARY FLOW =                  


                                    OUT                                        OUT
                                    ---                                        ---
   EVAPOTRANSPIRATION =        1.5511D+07     EVAPOTRANSPIRATION =        1478881.36
           STREAMFLOW =        1672058.77             STREAMFLOW =         183556.67
     GW BOUNDARY FLOW =                         GW BOUNDARY FLOW =                  

   INFLOWS - OUTFLOWS =       -1.7183D+07     INFLOWS - OUTFLOWS =       -1662438.03
             --------                                   --------

 TOTAL STORAGE CHANGE =       -1.7157D+07         STORAGE CHANGE =       -1664464.04
       --------------                             --------------
         LAND SURFACE =                             LAND SURFACE =                  
            SOIL ZONE =       -5762112.92              SOIL ZONE =        -270466.01
     UNSATURATED ZONE =       -1007857.33       UNSATURATED ZONE =         -54924.13
       SATURATED ZONE =       -1300472.53         SATURATED ZONE =        -269872.03
                LAKES =       -9086212.75                  LAKES =       -1069201.88

 OVERALL BUDGET ERROR =         -26524.37           BUDGET ERROR =           2026.01


  PERCENT DISCREPANCY =             -0.15    PERCENT DISCREPANCY =              0.12



1
 SUMMARY VOLUMETRIC BUDGET FOR GSFLOW 
 DATE: 10 14 1980              CUMULATIVE TIME STEP:      14
 MODFLOW STRESS PERIOD      1     CURRENT TIME STEP:      14     ITERATIONS:       3

 -----------------------------------------------------------------------------------

   CUMULATIVE VOLUMES               L**3   RATES FOR THIS TIME STEP           L**3/T
   ------------------                      ------------------------

                                     IN                                         IN
                                     --                                         --
        PRECIPITATION =        1.3442D+07          PRECIPITATION =        6721104.51
           STREAMFLOW =                               STREAMFLOW =                  
     GW BOUNDARY FLOW =                         GW BOUNDARY FLOW =                  


                                    OUT                                        OUT
                                    ---                                        ---
   EVAPOTRANSPIRATION =        2.3219D+07     EVAPOTRANSPIRATION =         507117.51
           STREAMFLOW =        2279257.54             STREAMFLOW =          34825.50
     GW BOUNDARY FLOW =                         GW BOUNDARY FLOW =                  

   INFLOWS - OUTFLOWS =       -1.2056D+07     INFLOWS - OUTFLOWS =        6179161.50
             --------                                   --------

 TOTAL STORAGE CHANGE =       -1.2114D+07         STORAGE CHANGE =        6135114.80
       --------------                             --------------
         LAND SURFACE =        2292332.55           LAND SURFACE =        1396244.77
            SOIL ZONE =         161532.94              SOIL ZONE =        3128771.04
     UNSATURATED ZONE =       -1444831.16       UNSATURATED ZONE =         -57088.55
       SATURATED ZONE =       -2728961.05         SATURATED ZONE =        -120497.20
                LAKES =       -1.0394D+07                  LAKES =        1787684.75

 OVERALL BUDGET ERROR =          57876.33           BUDGET ERROR =          44046.70


  PERCENT DISCREPANCY =              0.23    PERCENT DISCREPANCY =              0.66



1
 SUMMARY VOLUMETRIC BUDGET FOR GSFLOW 
 DATE: 10 21 1980              CUMULATIVE TIME STEP:      21
 MODFLOW STRESS PERIOD      1     CURRENT TIME STEP:      21     ITERATIONS:       3

 -----------------------------------------------------------------------------------

   CUMULATIVE VOLUMES               L**3   RATES FOR THIS TIME STEP           L**3/T
   ------------------                      ------------------------

                                     IN                                         IN
                                     --                                         --
        PRECIPITATION =        1.6803D+07          PRECIPITATION =                  
           STREAMFLOW =                               STREAMFLOW =                  
     GW BOUNDARY FLOW =                         GW BOUNDARY FLOW =                  


                                    OUT                                        OUT
                                    ---                                        ---
   EVAPOTRANSPIRATION =        3.0234D+07     EVAPOTRANSPIRATION =        1467069.00
           STREAMFLOW =        3039696.79             STREAMFLOW =         364392.81
     GW BOUNDARY FLOW =                         GW BOUNDARY FLOW =                  

   INFLOWS - OUTFLOWS =       -1.6471D+07     INFLOWS - OUTFLOWS =       -1831461.81
             --------                                   --------

 TOTAL STORAGE CHANGE =       -1.6547D+07         STORAGE CHANGE =       -1830544.78
       --------------                             --------------
         LAND SURFACE =         450933.09           LAND SURFACE =        -157820.81
            SOIL ZONE =        -318032.21              SOIL ZONE =        -679806.69
     UNSATURATED ZONE =       -1880814.51       UNSATURATED ZONE =         -58615.75
       SATURATED ZONE =       -3770200.19         SATURATED ZONE =        -158296.59
                LAKES =       -1.1029D+07                  LAKES =        -776004.94

 OVERALL BUDGET ERROR =          76581.79           BUDGET ERROR =           -917.03


  PERCENT DISCREPANCY =              0.23    PERCENT DISCREPANCY =             -0.05



1
 SUMMARY VOLUMETRIC BUDGET FOR GSFLOW 
 DATE: 10 28 1980              CUMULATIVE TIME STEP:      28
 MODFLOW STRESS PERIOD      1     CURRENT TIME STEP:      28     ITERATIONS:       4

 -----------------------------------------------------------------------------------

   CUMULATIVE VOLUMES               L**3   RATES FOR THIS TIME STEP           L**3/T
   ------------------                      ------------------------

                                     IN                                         IN
                                     --                                         --
        PRECIPITATION =        4.0327D+07          PRECIPITATION =                  
           STREAMFLOW =                               STREAMFLOW =                  
     GW BOUNDARY FLOW =                         GW BOUNDARY FLOW =                  


                                    OUT                                        OUT
                                    ---                                        ---
   EVAPOTRANSPIRATION =        3.7283D+07     EVAPOTRANSPIRATION =         461412.20
           STREAMFLOW =        5483164.94             STREAMFLOW =         342843.84
     GW BOUNDARY FLOW =                         GW BOUNDARY FLOW =                  

   INFLOWS - OUTFLOWS =       -2439472.99     INFLOWS - OUTFLOWS =        -804256.04
             --------                                   --------

 TOTAL STORAGE CHANGE =       -3027670.56         STORAGE CHANGE =        -758694.01
       --------------                             --------------
         LAND SURFACE =        4658064.75           LAND SURFACE =        -166816.91
            SOIL ZONE =        7120200.58              SOIL ZONE =        -272435.62
     UNSATURATED ZONE =       -2173590.84       UNSATURATED ZONE =         -31728.84
       SATURATED ZONE =       -4518343.02         SATURATED ZONE =        -125664.30
                LAKES =       -8114002.03                  LAKES =        -162048.34

 OVERALL BUDGET ERROR =         588197.57           BUDGET ERROR =         -45562.03

  ***WARNING, FLUX RATES OFF > 3%

  PERCENT DISCREPANCY =              1.37    PERCENT DISCREPANCY =             -5.83



1
 SUMMARY VOLUMETRIC BUDGET FOR GSFLOW 
 DATE: 11 04 1980              CUMULATIVE TIME STEP:      35
 MODFLOW STRESS PERIOD      1     CURRENT TIME STEP:      35     ITERATIONS:       7

 -----------------------------------------------------------------------------------

   CUMULATIVE VOLUMES               L**3   RATES FOR THIS TIME STEP           L**3/T
   ------------------                      ------------------------

                                     IN                                         IN
                                     --                                         --
        PRECIPITATION =        5.0408D+07          PRECIPITATION =                  
           STREAMFLOW =                               STREAMFLOW =                  
     GW BOUNDARY FLOW =                         GW BOUNDARY FLOW =                  


                                    OUT                                        OUT
                                    ---                                        ---
   EVAPOTRANSPIRATION =        5.2118D+07     EVAPOTRANSPIRATION =        2794249.12
           STREAMFLOW =        7932063.29             STREAMFLOW =         350030.38
     GW BOUNDARY FLOW =                         GW BOUNDARY FLOW =                  

   INFLOWS - OUTFLOWS =       -9641321.94     INFLOWS - OUTFLOWS =       -3144279.49
             --------                                   --------

 TOTAL STORAGE CHANGE =       -1.0551D+07         STORAGE CHANGE =       -3142476.79
       --------------                             --------------
         LAND SURFACE =         206598.94           LAND SURFACE =         -41867.41
            SOIL ZONE =        3882018.55              SOIL ZONE =       -1780735.25
     UNSATURATED ZONE =       -2135886.45       UNSATURATED ZONE =         -46046.51
       SATURATED ZONE =       -5056020.30         SATURATED ZONE =        -247701.12
                LAKES =       -7447776.40                  LAKES =       -1026126.50

 OVERALL BUDGET ERROR =         909743.72           BUDGET ERROR =          -1802.70


  PERCENT DISCREPANCY =              1.50    PERCENT DISCREPANCY =             -0.06



1
 SUMMARY VOLUMETRIC BUDGET FOR GSFLOW 
 DATE: 11 11 1980              CUMULATIVE TIME STEP:      42
 MODFLOW STRESS PERIOD      1     CURRENT TIME STEP:      42     ITERATIONS:       5

 -----------------------------------------------------------------------------------

   CUMULATIVE VOLUMES               L**3   RATES FOR THIS TIME STEP           L**3/T
   ------------------                      ------------------------

                                     IN                                         IN
                                     --                                         --
        PRECIPITATION =        7.9485D+07          PRECIPITATION =        3230734.65
           STREAMFLOW =                               STREAMFLOW =                  
     GW BOUNDARY FLOW =                         GW BOUNDARY FLOW =                  


                                    OUT                                        OUT
                                    ---                                        ---
   EVAPOTRANSPIRATION =        6.9956D+07     EVAPOTRANSPIRATION =        1696113.67
           STREAMFLOW =        9809691.40             STREAMFLOW =         250092.14
     GW BOUNDARY FLOW =                         GW BOUNDARY FLOW =                  

   INFLOWS - OUTFLOWS =        -280979.60     INFLOWS - OUTFLOWS =        1284528.84
             --------                                   --------

 TOTAL STORAGE CHANGE =       -1429257.58         STORAGE CHANGE =        1165239.80
       --------------                             --------------
         LAND SURFACE =        3266569.45           LAND SURFACE =        -110998.45
            SOIL ZONE =        8687253.18              SOIL ZONE =         695974.08
     UNSATURATED ZONE =       -2166858.60       UNSATURATED ZONE =          39518.86
       SATURATED ZONE =       -5922017.45         SATURATED ZONE =         -34496.20
                LAKES =       -5294204.15                  LAKES =         575241.50

 OVERALL BUDGET ERROR =        1148277.98           BUDGET ERROR =         119289.04

  ***WARNING, FLUX RATES OFF > 3%

  PERCENT DISCREPANCY =              1.43    PERCENT DISCREPANCY =              3.76



1
 SUMMARY VOLUMETRIC BUDGET FOR GSFLOW 
 DATE: 11 18 1980              CUMULATIVE TIME STEP:      49
 MODFLOW STRESS PERIOD      1     CURRENT TIME STEP:      49     ITERATIONS:       3

 -----------------------------------------------------------------------------------

   CUMULATIVE VOLUMES               L**3   RATES FOR THIS TIME STEP           L**3/T
   ------------------                      ------------------------

                                     IN                                         IN
                                     --                                         --
        PRECIPITATION =        8.5946D+07          PRECIPITATION =                  
           STREAMFLOW =                               STREAMFLOW =                  
     GW BOUNDARY FLOW =                         GW BOUNDARY FLOW =                  


                                    OUT                                        OUT
                                    ---                                        ---
   EVAPOTRANSPIRATION =        7.6249D+07     EVAPOTRANSPIRATION =        1510953.55
           STREAMFLOW =        1.1638D+07             STREAMFLOW =         312770.31
     GW BOUNDARY FLOW =                         GW BOUNDARY FLOW =                  

   INFLOWS - OUTFLOWS =       -1940674.76     INFLOWS - OUTFLOWS =       -1823723.86
             --------                                   --------

 TOTAL STORAGE CHANGE =       -2814294.86         STORAGE CHANGE =       -1766850.81
       --------------                             --------------
         LAND SURFACE =        3785521.16           LAND SURFACE =        -428824.73
            SOIL ZONE =        8067961.52              SOIL ZONE =        -671917.79
     UNSATURATED ZONE =       -2092772.77       UNSATURATED ZONE =          20198.30
       SATURATED ZONE =       -7155393.45         SATURATED ZONE =        -169334.88
                LAKES =       -5419611.32                  LAKES =        -516971.72

 OVERALL BUDGET ERROR =         873620.10           BUDGET ERROR =         -56873.05

  ***WARNING, FLUX RATES OFF > 3%

  PERCENT DISCREPANCY =              0.99    PERCENT DISCREPANCY =             -3.17



1
 SUMMARY VOLUMETRIC BUDGET FOR GSFLOW 
 DATE: 11 25 1980              CUMULATIVE TIME STEP:      56
 MODFLOW STRESS PERIOD      1     CURRENT TIME STEP:      56     ITERATIONS:       3

 -----------------------------------------------------------------------------------

   CUMULATIVE VOLUMES               L**3   RATES FOR THIS TIME STEP           L**3/T
   ------------------                      ------------------------

                                     IN                                         IN
                                     --                                         --
        PRECIPITATION =        8.9177D+07          PRECIPITATION =                  
           STREAMFLOW =                               STREAMFLOW =                  
     GW BOUNDARY FLOW =                         GW BOUNDARY FLOW =                  


                                    OUT                                        OUT
                                    ---                                        ---
   EVAPOTRANSPIRATION =        8.3098D+07     EVAPOTRANSPIRATION =         272926.44
           STREAMFLOW =        1.4055D+07             STREAMFLOW =         437097.81
     GW BOUNDARY FLOW =                         GW BOUNDARY FLOW =                  

   INFLOWS - OUTFLOWS =       -7975740.34     INFLOWS - OUTFLOWS =        -710024.25
             --------                                   --------

 TOTAL STORAGE CHANGE =       -8889300.57         STORAGE CHANGE =        -719704.75
       --------------                             --------------
         LAND SURFACE =        3623166.01           LAND SURFACE =         -24347.90
            SOIL ZONE =        6066902.07              SOIL ZONE =        -183920.57
     UNSATURATED ZONE =       -2103930.91       UNSATURATED ZONE =         -17405.51
       SATURATED ZONE =       -8390734.48         SATURATED ZONE =        -182924.36
                LAKES =       -8084703.26                  LAKES =        -311106.41

 OVERALL BUDGET ERROR =         913560.23           BUDGET ERROR =           9680.50


  PERCENT DISCREPANCY =              0.94    PERCENT DISCREPANCY =              1.35



1
 SUMMARY VOLUMETRIC BUDGET FOR GSFLOW 
 DATE: 12 02 1980              CUMULATIVE TIME STEP:      63
 MODFLOW STRESS PERIOD      1     CURRENT TIME STEP:      63     ITERATIONS:       4

 -----------------------------------------------------------------------------------

   CUMULATIVE VOLUMES               L**3   RATES FOR THIS TIME STEP           L**3/T
   ------------------                      ------------------------

                                     IN                                         IN
                                     --                                         --
        PRECIPITATION =        1.0846D+08          PRECIPITATION =        3198161.89
           STREAMFLOW =                               STREAMFLOW =                  
     GW BOUNDARY FLOW =                         GW BOUNDARY FLOW =                  


                                    OUT                                        OUT
                                    ---                                        ---
   EVAPOTRANSPIRATION =        9.0647D+07     EVAPOTRANSPIRATION =        1276583.86
           STREAMFLOW =        1.7318D+07             STREAMFLOW =         437214.94
     GW BOUNDARY FLOW =                         GW BOUNDARY FLOW =                  

   INFLOWS - OUTFLOWS =         499331.77     INFLOWS - OUTFLOWS =        1484363.10
             --------                                   --------

 TOTAL STORAGE CHANGE =        -870379.68         STORAGE CHANGE =        1310604.71
       --------------                             --------------
         LAND SURFACE =        6315725.54           LAND SURFACE =       -1022199.62
            SOIL ZONE =        9952184.57              SOIL ZONE =        1750870.58
     UNSATURATED ZONE =       -1954133.53       UNSATURATED ZONE =          56375.21
       SATURATED ZONE =       -9117472.34         SATURATED ZONE =         -40827.34
                LAKES =       -6066683.92                  LAKES =         566385.88

 OVERALL BUDGET ERROR =        1369711.45           BUDGET ERROR =         173758.39

  ***WARNING, FLUX RATES OFF > 3%

  PERCENT DISCREPANCY =              1.26    PERCENT DISCREPANCY =              5.58



1
 SUMMARY VOLUMETRIC BUDGET FOR GSFLOW 
 DATE: 12 09 1980              CUMULATIVE TIME STEP:      70
 MODFLOW STRESS PERIOD      1     CURRENT TIME STEP:      70     ITERATIONS:       3

 -----------------------------------------------------------------------------------

   CUMULATIVE VOLUMES               L**3   RATES FOR THIS TIME STEP           L**3/T
   ------------------                      ------------------------

                                     IN                                         IN
                                     --                                         --
        PRECIPITATION =        1.7882D+08          PRECIPITATION =                  
           STREAMFLOW =                               STREAMFLOW =                  
     GW BOUNDARY FLOW =                         GW BOUNDARY FLOW =                  


                                    OUT                                        OUT
                                    ---                                        ---
   EVAPOTRANSPIRATION =        9.2977D+07     EVAPOTRANSPIRATION =         386685.89
           STREAMFLOW =        2.0282D+07             STREAMFLOW =         420980.56
     GW BOUNDARY FLOW =                         GW BOUNDARY FLOW =                  

   INFLOWS - OUTFLOWS =        6.5564D+07     INFLOWS - OUTFLOWS =        -807666.45
             --------                                   --------

 TOTAL STORAGE CHANGE =        6.3884D+07         STORAGE CHANGE =        -827679.27
       --------------                             --------------
         LAND SURFACE =        5.0168D+07           LAND SURFACE =        -246649.42
            SOIL ZONE =        1.3110D+07              SOIL ZONE =        -140909.14
     UNSATURATED ZONE =       -1517843.11       UNSATURATED ZONE =          40079.63
       SATURATED ZONE =       -1.0087D+07         SATURATED ZONE =        -207616.41
                LAKES =        1.2211D+07                  LAKES =        -272583.94

 OVERALL BUDGET ERROR =        1679828.40           BUDGET ERROR =          20012.82


  PERCENT DISCREPANCY =              0.94    PERCENT DISCREPANCY =              2.45



1
 SUMMARY VOLUMETRIC BUDGET FOR GSFLOW 
 DATE: 12 16 1980              CUMULATIVE TIME STEP:      77
 MODFLOW STRESS PERIOD      1     CURRENT TIME STEP:      77     ITERATIONS:       3

 -----------------------------------------------------------------------------------

   CUMULATIVE VOLUMES               L**3   RATES FOR THIS TIME STEP           L**3/T
   ------------------                      ------------------------

                                     IN                                         IN
                                     --                                         --
        PRECIPITATION =        1.7882D+08          PRECIPITATION =                  
           STREAMFLOW =                               STREAMFLOW =                  
     GW BOUNDARY FLOW =                         GW BOUNDARY FLOW =                  


                                    OUT                                        OUT
                                    ---                                        ---
   EVAPOTRANSPIRATION =        9.9451D+07     EVAPOTRANSPIRATION =        1457743.94
           STREAMFLOW =        2.3263D+07             STREAMFLOW =         430698.91
     GW BOUNDARY FLOW =                         GW BOUNDARY FLOW =                  

   INFLOWS - OUTFLOWS =        5.6110D+07     INFLOWS - OUTFLOWS =       -1888442.85
             --------                                   --------

 TOTAL STORAGE CHANGE =        5.4282D+07         STORAGE CHANGE =       -1915797.92
       --------------                             --------------
         LAND SURFACE =        4.5744D+07           LAND SURFACE =       -1259208.95
            SOIL ZONE =        1.2802D+07              SOIL ZONE =         240458.50
     UNSATURATED ZONE =       -1371386.53       UNSATURATED ZONE =          20175.37
       SATURATED ZONE =       -1.1419D+07         SATURATED ZONE =        -168857.22
                LAKES =        8525737.25                  LAKES =        -748365.62

 OVERALL BUDGET ERROR =        1827926.12           BUDGET ERROR =          27355.07


  PERCENT DISCREPANCY =              1.03    PERCENT DISCREPANCY =              1.44



1
 SUMMARY VOLUMETRIC BUDGET FOR GSFLOW 
 DATE: 12 23 1980              CUMULATIVE TIME STEP:      84
 MODFLOW STRESS PERIOD      1     CURRENT TIME STEP:      84     ITERATIONS:       3

 -----------------------------------------------------------------------------------

   CUMULATIVE VOLUMES               L**3   RATES FOR THIS TIME STEP           L**3/T
   ------------------                      ------------------------

                                     IN                                         IN
                                     --                                         --
        PRECIPITATION =        1.8522D+08          PRECIPITATION =        3198161.89
           STREAMFLOW =                               STREAMFLOW =                  
     GW BOUNDARY FLOW =                         GW BOUNDARY FLOW =                  


                                    OUT                                        OUT
                                    ---                                        ---
   EVAPOTRANSPIRATION =        1.0782D+08     EVAPOTRANSPIRATION =        1096787.84
           STREAMFLOW =        2.6316D+07             STREAMFLOW =         443565.56
     GW BOUNDARY FLOW =                         GW BOUNDARY FLOW =                  

   INFLOWS - OUTFLOWS =        5.1079D+07     INFLOWS - OUTFLOWS =        1657808.50
             --------                                   --------

 TOTAL STORAGE CHANGE =        4.8970D+07         STORAGE CHANGE =        1510902.46
       --------------                             --------------
         LAND SURFACE =        4.0221D+07           LAND SURFACE =        -367739.37
            SOIL ZONE =        1.5784D+07              SOIL ZONE =        1374591.02
     UNSATURATED ZONE =       -1084655.89       UNSATURATED ZONE =          94595.57
       SATURATED ZONE =       -1.2332D+07         SATURATED ZONE =         -80683.59
                LAKES =        6381311.59                  LAKES =         490138.84

 OVERALL BUDGET ERROR =        2109399.25           BUDGET ERROR =         146906.03

  ***WARNING, FLUX RATES OFF > 3%

  PERCENT DISCREPANCY =              1.15    PERCENT DISCREPANCY =              4.70



1
 SUMMARY VOLUMETRIC BUDGET FOR GSFLOW 
 DATE: 12 30 1980              CUMULATIVE TIME STEP:      91
 MODFLOW STRESS PERIOD      1     CURRENT TIME STEP:      91     ITERATIONS:       4

 -----------------------------------------------------------------------------------

   CUMULATIVE VOLUMES               L**3   RATES FOR THIS TIME STEP           L**3/T
   ------------------                      ------------------------

                                     IN                                         IN
                                     --                                         --
        PRECIPITATION =        1.8522D+08          PRECIPITATION =                  
           STREAMFLOW =                               STREAMFLOW =                  
     GW BOUNDARY FLOW =                         GW BOUNDARY FLOW =                  


                                    OUT                                        OUT
                                    ---                                        ---
   EVAPOTRANSPIRATION =        1.1806D+08     EVAPOTRANSPIRATION =        1240476.00
           STREAMFLOW =        2.9399D+07             STREAMFLOW =         445279.78
     GW BOUNDARY FLOW =                         GW BOUNDARY FLOW =                  

   INFLOWS - OUTFLOWS =        3.7763D+07     INFLOWS - OUTFLOWS =       -1685755.78
             --------                                   --------

 TOTAL STORAGE CHANGE =        3.5456D+07         STORAGE CHANGE =       -1697497.21
       --------------                             --------------
         LAND SURFACE =        3.3989D+07           LAND SURFACE =        -561684.69
            SOIL ZONE =        1.3826D+07              SOIL ZONE =        -405548.65
     UNSATURATED ZONE =        -764435.57       UNSATURATED ZONE =          34203.23
       SATURATED ZONE =       -1.3382D+07         SATURATED ZONE =        -162616.22
                LAKES =        1787394.93                  LAKES =        -601850.88

 OVERALL BUDGET ERROR =        2307813.19           BUDGET ERROR =          11741.42


  PERCENT DISCREPANCY =              1.25    PERCENT DISCREPANCY =              0.69



1
 SUMMARY VOLUMETRIC BUDGET FOR GSFLOW 
 DATE: 01 06 1981              CUMULATIVE TIME STEP:      98
 MODFLOW STRESS PERIOD      1     CURRENT TIME STEP:      98     ITERATIONS:      14

 -----------------------------------------------------------------------------------

   CUMULATIVE VOLUMES               L**3   RATES FOR THIS TIME STEP           L**3/T
   ------------------                      ------------------------

                                     IN                                         IN
                                     --                                         --
        PRECIPITATION =        2.0923D+08          PRECIPITATION =                  
           STREAMFLOW =                               STREAMFLOW =                  
     GW BOUNDARY FLOW =                         GW BOUNDARY FLOW =                  


                                    OUT                                        OUT
                                    ---                                        ---
   EVAPOTRANSPIRATION =        1.2563D+08     EVAPOTRANSPIRATION =        1141271.67
           STREAMFLOW =        3.2519D+07             STREAMFLOW =         445540.84
     GW BOUNDARY FLOW =                         GW BOUNDARY FLOW =                  

   INFLOWS - OUTFLOWS =        5.1077D+07     INFLOWS - OUTFLOWS =       -1586812.51
             --------                                   --------

 TOTAL STORAGE CHANGE =        4.8687D+07         STORAGE CHANGE =       -1608619.27
       --------------                             --------------
         LAND SURFACE =        3.9010D+07           LAND SURFACE =        -361344.25
            SOIL ZONE =        1.7034D+07              SOIL ZONE =        -583734.87
     UNSATURATED ZONE =        -178750.48       UNSATURATED ZONE =          80758.26
       SATURATED ZONE =       -1.3939D+07         SATURATED ZONE =        -219713.16
                LAKES =        6760671.53                  LAKES =        -524585.25

 OVERALL BUDGET ERROR =        2389342.48           BUDGET ERROR =          21806.76


  PERCENT DISCREPANCY =              1.15    PERCENT DISCREPANCY =              1.36



1
 SUMMARY VOLUMETRIC BUDGET FOR GSFLOW 
 DATE: 01 13 1981              CUMULATIVE TIME STEP:     105
 MODFLOW STRESS PERIOD      1     CURRENT TIME STEP:     105     ITERATIONS:       3

 -----------------------------------------------------------------------------------

   CUMULATIVE VOLUMES               L**3   RATES FOR THIS TIME STEP           L**3/T
   ------------------                      ------------------------

                                     IN                                         IN
                                     --                                         --
        PRECIPITATION =        2.1223D+08          PRECIPITATION =                  
           STREAMFLOW =                               STREAMFLOW =                  
     GW BOUNDARY FLOW =                         GW BOUNDARY FLOW =                  


                                    OUT                                        OUT
                                    ---                                        ---
   EVAPOTRANSPIRATION =        1.3397D+08     EVAPOTRANSPIRATION =        1403790.29
           STREAMFLOW =        3.5650D+07             STREAMFLOW =         457521.16
     GW BOUNDARY FLOW =                         GW BOUNDARY FLOW =                  

   INFLOWS - OUTFLOWS =        4.2610D+07     INFLOWS - OUTFLOWS =       -1861311.44
             --------                                   --------

 TOTAL STORAGE CHANGE =        4.0104D+07         STORAGE CHANGE =       -1874873.16
       --------------                             --------------
         LAND SURFACE =        3.7468D+07           LAND SURFACE =        -472696.79
            SOIL ZONE =        1.4435D+07              SOIL ZONE =        -520680.03
     UNSATURATED ZONE =          99026.62       UNSATURATED ZONE =          23821.25
       SATURATED ZONE =       -1.5233D+07         SATURATED ZONE =        -180124.72
                LAKES =        3334920.21                  LAKES =        -725192.88

 OVERALL BUDGET ERROR =        2506342.50           BUDGET ERROR =          13561.72


  PERCENT DISCREPANCY =              1.19    PERCENT DISCREPANCY =              0.73



1
 SUMMARY VOLUMETRIC BUDGET FOR GSFLOW 
 DATE: 01 20 1981              CUMULATIVE TIME STEP:     112
 MODFLOW STRESS PERIOD      1     CURRENT TIME STEP:     112     ITERATIONS:      12

 -----------------------------------------------------------------------------------

   CUMULATIVE VOLUMES               L**3   RATES FOR THIS TIME STEP           L**3/T
   ------------------                      ------------------------

                                     IN                                         IN
                                     --                                         --
        PRECIPITATION =        2.2423D+08          PRECIPITATION =        6001392.59
           STREAMFLOW =                               STREAMFLOW =                  
     GW BOUNDARY FLOW =                         GW BOUNDARY FLOW =                  


                                    OUT                                        OUT
                                    ---                                        ---
   EVAPOTRANSPIRATION =        1.4499D+08     EVAPOTRANSPIRATION =        1812323.42
           STREAMFLOW =        3.9241D+07             STREAMFLOW =         485521.72
     GW BOUNDARY FLOW =                         GW BOUNDARY FLOW =                  

   INFLOWS - OUTFLOWS =        4.0003D+07     INFLOWS - OUTFLOWS =        3703547.45
             --------                                   --------

 TOTAL STORAGE CHANGE =        3.7300D+07         STORAGE CHANGE =        3603301.29
       --------------                             --------------
         LAND SURFACE =        3.4618D+07           LAND SURFACE =         551847.53
            SOIL ZONE =        1.6001D+07              SOIL ZONE =        1366560.11
     UNSATURATED ZONE =         535080.19       UNSATURATED ZONE =         135825.67
       SATURATED ZONE =       -1.5869D+07         SATURATED ZONE =          85794.61
                LAKES =        2015574.61                  LAKES =        1463273.38

 OVERALL BUDGET ERROR =        2702650.91           BUDGET ERROR =         100246.16


  PERCENT DISCREPANCY =              1.21    PERCENT DISCREPANCY =              1.68



1
 SUMMARY VOLUMETRIC BUDGET FOR GSFLOW 
 DATE: 01 27 1981              CUMULATIVE TIME STEP:     119
 MODFLOW STRESS PERIOD      1     CURRENT TIME STEP:     119     ITERATIONS:      15

 -----------------------------------------------------------------------------------

   CUMULATIVE VOLUMES               L**3   RATES FOR THIS TIME STEP           L**3/T
   ------------------                      ------------------------

                                     IN                                         IN
                                     --                                         --
        PRECIPITATION =        3.3525D+08          PRECIPITATION =        6.0014D+07
           STREAMFLOW =                               STREAMFLOW =                  
     GW BOUNDARY FLOW =                         GW BOUNDARY FLOW =                  


                                    OUT                                        OUT
                                    ---                                        ---
   EVAPOTRANSPIRATION =        1.5408D+08     EVAPOTRANSPIRATION =         663125.65
           STREAMFLOW =        4.1752D+07             STREAMFLOW =         345811.31
     GW BOUNDARY FLOW =                         GW BOUNDARY FLOW =                  

   INFLOWS - OUTFLOWS =        1.3943D+08     INFLOWS - OUTFLOWS =        5.9005D+07
             --------                                   --------

 TOTAL STORAGE CHANGE =        1.3659D+08         STORAGE CHANGE =        5.8971D+07
       --------------                             --------------
         LAND SURFACE =        1.0380D+08           LAND SURFACE =        4.0704D+07
            SOIL ZONE =        1.8084D+07              SOIL ZONE =        1755784.34
     UNSATURATED ZONE =        1214315.42       UNSATURATED ZONE =         120718.83
       SATURATED ZONE =       -1.6442D+07         SATURATED ZONE =          78847.48
                LAKES =        2.9934D+07                  LAKES =        1.6311D+07

 OVERALL BUDGET ERROR =        2838534.17           BUDGET ERROR =          34277.33


  PERCENT DISCREPANCY =              0.85    PERCENT DISCREPANCY =              0.06



1
 SUMMARY VOLUMETRIC BUDGET FOR GSFLOW 
 DATE: 02 03 1981              CUMULATIVE TIME STEP:     126
 MODFLOW STRESS PERIOD      1     CURRENT TIME STEP:     126     ITERATIONS:      21

 -----------------------------------------------------------------------------------

   CUMULATIVE VOLUMES               L**3   RATES FOR THIS TIME STEP           L**3/T
   ------------------                      ------------------------

                                     IN                                         IN
                                     --                                         --
        PRECIPITATION =        4.0137D+08          PRECIPITATION =                  
           STREAMFLOW =                               STREAMFLOW =                  
     GW BOUNDARY FLOW =                         GW BOUNDARY FLOW =                  


                                    OUT                                        OUT
                                    ---                                        ---
   EVAPOTRANSPIRATION =        1.5769D+08     EVAPOTRANSPIRATION =         897750.28
           STREAMFLOW =        4.4232D+07             STREAMFLOW =         354891.78
     GW BOUNDARY FLOW =                         GW BOUNDARY FLOW =                  

   INFLOWS - OUTFLOWS =        1.9944D+08     INFLOWS - OUTFLOWS =       -1252642.06
             --------                                   --------

 TOTAL STORAGE CHANGE =        1.9684D+08         STORAGE CHANGE =       -1275540.49
       --------------                             --------------
         LAND SURFACE =        1.5000D+08           LAND SURFACE =        -514046.87
            SOIL ZONE =        1.7078D+07              SOIL ZONE =        -141718.80
     UNSATURATED ZONE =        1638418.63       UNSATURATED ZONE =          30832.33
       SATURATED ZONE =       -1.7679D+07         SATURATED ZONE =        -175647.56
                LAKES =        4.5810D+07                  LAKES =        -474959.59

 OVERALL BUDGET ERROR =        2595343.98           BUDGET ERROR =          22898.43


  PERCENT DISCREPANCY =              0.65    PERCENT DISCREPANCY =              1.81



1
 SUMMARY VOLUMETRIC BUDGET FOR GSFLOW 
 DATE: 02 10 1981              CUMULATIVE TIME STEP:     133
 MODFLOW STRESS PERIOD      1     CURRENT TIME STEP:     133     ITERATIONS:       3

 -----------------------------------------------------------------------------------

   CUMULATIVE VOLUMES               L**3   RATES FOR THIS TIME STEP           L**3/T
   ------------------                      ------------------------

                                     IN                                         IN
                                     --                                         --
        PRECIPITATION =        4.1375D+08          PRECIPITATION =        3095932.43
           STREAMFLOW =                               STREAMFLOW =                  
     GW BOUNDARY FLOW =                         GW BOUNDARY FLOW =                  


                                    OUT                                        OUT
                                    ---                                        ---
   EVAPOTRANSPIRATION =        1.6309D+08     EVAPOTRANSPIRATION =         577901.32
           STREAMFLOW =        4.6626D+07             STREAMFLOW =         340304.91
     GW BOUNDARY FLOW =                         GW BOUNDARY FLOW =                  

   INFLOWS - OUTFLOWS =        2.0403D+08     INFLOWS - OUTFLOWS =        2177726.21
             --------                                   --------

 TOTAL STORAGE CHANGE =        2.0131D+08         STORAGE CHANGE =        2148257.94
       --------------                             --------------
         LAND SURFACE =        1.5542D+08           LAND SURFACE =        1647975.60
            SOIL ZONE =        1.6990D+07              SOIL ZONE =         193393.32
     UNSATURATED ZONE =        1715619.64       UNSATURATED ZONE =           8375.80
       SATURATED ZONE =       -1.8785D+07         SATURATED ZONE =        -150466.25
                LAKES =        4.5974D+07                  LAKES =         448979.47

 OVERALL BUDGET ERROR =        2719397.20           BUDGET ERROR =          29468.27


  PERCENT DISCREPANCY =              0.66    PERCENT DISCREPANCY =              0.96



1
 SUMMARY VOLUMETRIC BUDGET FOR GSFLOW 
 DATE: 02 17 1981              CUMULATIVE TIME STEP:     140
 MODFLOW STRESS PERIOD      1     CURRENT TIME STEP:     140     ITERATIONS:      32

 -----------------------------------------------------------------------------------

   CUMULATIVE VOLUMES               L**3   RATES FOR THIS TIME STEP           L**3/T
   ------------------                      ------------------------

                                     IN                                         IN
                                     --                                         --
        PRECIPITATION =        4.6328D+08          PRECIPITATION =                  
           STREAMFLOW =                               STREAMFLOW =                  
     GW BOUNDARY FLOW =                         GW BOUNDARY FLOW =                  


                                    OUT                                        OUT
                                    ---                                        ---
   EVAPOTRANSPIRATION =        1.7439D+08     EVAPOTRANSPIRATION =        2612670.62
           STREAMFLOW =        4.8976D+07             STREAMFLOW =         285389.16
     GW BOUNDARY FLOW =                         GW BOUNDARY FLOW =                  

   INFLOWS - OUTFLOWS =        2.3992D+08     INFLOWS - OUTFLOWS =       -2898059.77
             --------                                   --------

 TOTAL STORAGE CHANGE =        2.3662D+08         STORAGE CHANGE =       -2948520.40
       --------------                             --------------
         LAND SURFACE =        1.6983D+08           LAND SURFACE =       -2316327.39
            SOIL ZONE =        2.3852D+07              SOIL ZONE =         -58626.25
     UNSATURATED ZONE =        2750551.67       UNSATURATED ZONE =         187690.91
       SATURATED ZONE =       -1.8875D+07         SATURATED ZONE =        -126119.05
                LAKES =        5.9061D+07                  LAKES =        -635138.62

 OVERALL BUDGET ERROR =        3295876.73           BUDGET ERROR =          50460.63


  PERCENT DISCREPANCY =              0.71    PERCENT DISCREPANCY =              1.73



1
 SUMMARY VOLUMETRIC BUDGET FOR GSFLOW 
 DATE: 02 24 1981              CUMULATIVE TIME STEP:     147
 MODFLOW STRESS PERIOD      1     CURRENT TIME STEP:     147     ITERATIONS:      15

 -----------------------------------------------------------------------------------

   CUMULATIVE VOLUMES               L**3   RATES FOR THIS TIME STEP           L**3/T
   ------------------                      ------------------------

                                     IN                                         IN
                                     --                                         --
        PRECIPITATION =        4.8805D+08          PRECIPITATION =        1.8576D+07
           STREAMFLOW =                               STREAMFLOW =                  
     GW BOUNDARY FLOW =                         GW BOUNDARY FLOW =                  


                                    OUT                                        OUT
                                    ---                                        ---
   EVAPOTRANSPIRATION =        1.8775D+08     EVAPOTRANSPIRATION =        1355323.97
           STREAMFLOW =        5.0060D+07             STREAMFLOW =         143123.89
     GW BOUNDARY FLOW =                         GW BOUNDARY FLOW =                  

   INFLOWS - OUTFLOWS =        2.5024D+08     INFLOWS - OUTFLOWS =        1.7077D+07
             --------                                   --------

 TOTAL STORAGE CHANGE =        2.4652D+08         STORAGE CHANGE =        1.7040D+07
       --------------                             --------------
         LAND SURFACE =        1.6962D+08           LAND SURFACE =        1.0824D+07
            SOIL ZONE =        2.6085D+07              SOIL ZONE =         470203.32
     UNSATURATED ZONE =        1574272.63       UNSATURATED ZONE =         343631.91
       SATURATED ZONE =       -1.7052D+07         SATURATED ZONE =          49103.91
                LAKES =        6.6297D+07                  LAKES =        5353600.50

 OVERALL BUDGET ERROR =        3713717.11           BUDGET ERROR =          36867.52


  PERCENT DISCREPANCY =              0.76    PERCENT DISCREPANCY =              0.20



1
 SUMMARY VOLUMETRIC BUDGET FOR GSFLOW 
 DATE: 03 03 1981              CUMULATIVE TIME STEP:     154
 MODFLOW STRESS PERIOD      1     CURRENT TIME STEP:     154     ITERATIONS:      16

 -----------------------------------------------------------------------------------

   CUMULATIVE VOLUMES               L**3   RATES FOR THIS TIME STEP           L**3/T
   ------------------                      ------------------------

                                     IN                                         IN
                                     --                                         --
        PRECIPITATION =        5.0056D+08          PRECIPITATION =                  
           STREAMFLOW =                               STREAMFLOW =                  
     GW BOUNDARY FLOW =                         GW BOUNDARY FLOW =                  


                                    OUT                                        OUT
                                    ---                                        ---
   EVAPOTRANSPIRATION =        1.9627D+08     EVAPOTRANSPIRATION =        2160764.99
           STREAMFLOW =        5.1106D+07             STREAMFLOW =         161574.77
     GW BOUNDARY FLOW =                         GW BOUNDARY FLOW =                  

   INFLOWS - OUTFLOWS =        2.5318D+08     INFLOWS - OUTFLOWS =       -2322339.75
             --------                                   --------

 TOTAL STORAGE CHANGE =        2.4932D+08         STORAGE CHANGE =       -2340765.36
       --------------                             --------------
         LAND SURFACE =        1.7232D+08           LAND SURFACE =       -1112915.95
            SOIL ZONE =        2.4196D+07              SOIL ZONE =        -374942.81
     UNSATURATED ZONE =        2541877.08       UNSATURATED ZONE =          66259.49
       SATURATED ZONE =       -1.8287D+07         SATURATED ZONE =        -179247.78
                LAKES =        6.8547D+07                  LAKES =        -739918.31

 OVERALL BUDGET ERROR =        3862881.64           BUDGET ERROR =          18425.61


  PERCENT DISCREPANCY =              0.77    PERCENT DISCREPANCY =              0.79



1
 SUMMARY VOLUMETRIC BUDGET FOR GSFLOW 
 DATE: 03 10 1981              CUMULATIVE TIME STEP:     161
 MODFLOW STRESS PERIOD      1     CURRENT TIME STEP:     161     ITERATIONS:      42

 -----------------------------------------------------------------------------------

   CUMULATIVE VOLUMES               L**3   RATES FOR THIS TIME STEP           L**3/T
   ------------------                      ------------------------

                                     IN                                         IN
                                     --                                         --
        PRECIPITATION =        5.0378D+08          PRECIPITATION =        3221591.34
           STREAMFLOW =                               STREAMFLOW =                  
     GW BOUNDARY FLOW =                         GW BOUNDARY FLOW =                  


                                    OUT                                        OUT
                                    ---                                        ---
   EVAPOTRANSPIRATION =        2.1335D+08     EVAPOTRANSPIRATION =        1911193.11
           STREAMFLOW =        5.2250D+07             STREAMFLOW =         163871.41
     GW BOUNDARY FLOW =                         GW BOUNDARY FLOW =                  

   INFLOWS - OUTFLOWS =        2.3818D+08     INFLOWS - OUTFLOWS =        1146526.82
             --------                                   --------

 TOTAL STORAGE CHANGE =        2.3411D+08         STORAGE CHANGE =        1107476.27
       --------------                             --------------
         LAND SURFACE =        1.5960D+08           LAND SURFACE =       -1847354.59
            SOIL ZONE =        2.4741D+07              SOIL ZONE =        1269031.77
     UNSATURATED ZONE =        3006258.77       UNSATURATED ZONE =         159129.12
       SATURATED ZONE =       -1.8807D+07         SATURATED ZONE =         136735.59
                LAKES =        6.5570D+07                  LAKES =        1389934.38

 OVERALL BUDGET ERROR =        4072562.14           BUDGET ERROR =          39050.55


  PERCENT DISCREPANCY =              0.81    PERCENT DISCREPANCY =              1.22



1
 SUMMARY VOLUMETRIC BUDGET FOR GSFLOW 
 DATE: 03 17 1981              CUMULATIVE TIME STEP:     168
 MODFLOW STRESS PERIOD      1     CURRENT TIME STEP:     168     ITERATIONS:      33

 -----------------------------------------------------------------------------------

   CUMULATIVE VOLUMES               L**3   RATES FOR THIS TIME STEP           L**3/T
   ------------------                      ------------------------

                                     IN                                         IN
                                     --                                         --
        PRECIPITATION =        5.1345D+08          PRECIPITATION =        3221591.34
           STREAMFLOW =                               STREAMFLOW =                  
     GW BOUNDARY FLOW =                         GW BOUNDARY FLOW =                  


                                    OUT                                        OUT
                                    ---                                        ---
   EVAPOTRANSPIRATION =        2.2791D+08     EVAPOTRANSPIRATION =        1042238.55
           STREAMFLOW =        5.3446D+07             STREAMFLOW =         174561.34
     GW BOUNDARY FLOW =                         GW BOUNDARY FLOW =                  

   INFLOWS - OUTFLOWS =        2.3209D+08     INFLOWS - OUTFLOWS =        2004791.44
             --------                                   --------

 TOTAL STORAGE CHANGE =        2.2789D+08         STORAGE CHANGE =        1986122.49
       --------------                             --------------
         LAND SURFACE =        1.5550D+08           LAND SURFACE =        1505005.35
            SOIL ZONE =        2.3807D+07              SOIL ZONE =          24641.45
     UNSATURATED ZONE =        3600638.31       UNSATURATED ZONE =        -103368.49
       SATURATED ZONE =       -1.9523D+07         SATURATED ZONE =           2044.00
                LAKES =        6.4509D+07                  LAKES =         557800.19

 OVERALL BUDGET ERROR =        4194376.00           BUDGET ERROR =          18668.95


  PERCENT DISCREPANCY =              0.82    PERCENT DISCREPANCY =              0.58



1
 SUMMARY VOLUMETRIC BUDGET FOR GSFLOW 
 DATE: 03 24 1981              CUMULATIVE TIME STEP:     175
 MODFLOW STRESS PERIOD      1     CURRENT TIME STEP:     175     ITERATIONS:      21

 -----------------------------------------------------------------------------------

   CUMULATIVE VOLUMES               L**3   RATES FOR THIS TIME STEP           L**3/T
   ------------------                      ------------------------

                                     IN                                         IN
                                     --                                         --
        PRECIPITATION =        5.7144D+08          PRECIPITATION =        6443182.67
           STREAMFLOW =                               STREAMFLOW =                  
     GW BOUNDARY FLOW =                         GW BOUNDARY FLOW =                  


                                    OUT                                        OUT
                                    ---                                        ---
   EVAPOTRANSPIRATION =        2.4182D+08     EVAPOTRANSPIRATION =        1710229.29
           STREAMFLOW =        5.4582D+07             STREAMFLOW =         164599.16
     GW BOUNDARY FLOW =                         GW BOUNDARY FLOW =                  

   INFLOWS - OUTFLOWS =        2.7503D+08     INFLOWS - OUTFLOWS =        4568354.22
             --------                                   --------

 TOTAL STORAGE CHANGE =        2.7057D+08         STORAGE CHANGE =        4539706.09
       --------------                             --------------
         LAND SURFACE =        1.8290D+08           LAND SURFACE =        1419532.71
            SOIL ZONE =        2.6105D+07              SOIL ZONE =         786884.20
     UNSATURATED ZONE =        4522860.86       UNSATURATED ZONE =         179677.33
       SATURATED ZONE =       -1.9959D+07         SATURATED ZONE =          91202.11
                LAKES =        7.7008D+07                  LAKES =        2062409.75

 OVERALL BUDGET ERROR =        4459069.46           BUDGET ERROR =          28648.13


  PERCENT DISCREPANCY =              0.78    PERCENT DISCREPANCY =              0.45



1
 SUMMARY VOLUMETRIC BUDGET FOR GSFLOW 
 DATE: 03 31 1981              CUMULATIVE TIME STEP:     182
 MODFLOW STRESS PERIOD      1     CURRENT TIME STEP:     182     ITERATIONS:      28

 -----------------------------------------------------------------------------------

   CUMULATIVE VOLUMES               L**3   RATES FOR THIS TIME STEP           L**3/T
   ------------------                      ------------------------

                                     IN                                         IN
                                     --                                         --
        PRECIPITATION =        6.3587D+08          PRECIPITATION =        6443182.67
           STREAMFLOW =                               STREAMFLOW =                  
     GW BOUNDARY FLOW =                         GW BOUNDARY FLOW =                  


                                    OUT                                        OUT
                                    ---                                        ---
   EVAPOTRANSPIRATION =        2.5632D+08     EVAPOTRANSPIRATION =        1135699.29
           STREAMFLOW =        5.5754D+07             STREAMFLOW =         154067.25
     GW BOUNDARY FLOW =                         GW BOUNDARY FLOW =                  

   INFLOWS - OUTFLOWS =        3.2379D+08     INFLOWS - OUTFLOWS =        5153416.13
             --------                                   --------

 TOTAL STORAGE CHANGE =        3.1937D+08         STORAGE CHANGE =        5130638.99
       --------------                             --------------
         LAND SURFACE =        2.0791D+08           LAND SURFACE =        2593093.38
            SOIL ZONE =        2.7748D+07              SOIL ZONE =         496524.81
     UNSATURATED ZONE =        1394170.55       UNSATURATED ZONE =         179809.81
       SATURATED ZONE =       -1.6417D+07         SATURATED ZONE =         -32646.64
                LAKES =        9.8736D+07                  LAKES =        1893857.62

 OVERALL BUDGET ERROR =        4418282.93           BUDGET ERROR =          22777.13


  PERCENT DISCREPANCY =              0.70    PERCENT DISCREPANCY =              0.35



1
 SUMMARY VOLUMETRIC BUDGET FOR GSFLOW 
 DATE: 04 07 1981              CUMULATIVE TIME STEP:     189
 MODFLOW STRESS PERIOD      1     CURRENT TIME STEP:     189     ITERATIONS:      49

 -----------------------------------------------------------------------------------

   CUMULATIVE VOLUMES               L**3   RATES FOR THIS TIME STEP           L**3/T
   ------------------                      ------------------------

                                     IN                                         IN
                                     --                                         --
        PRECIPITATION =        6.5328D+08          PRECIPITATION =                  
           STREAMFLOW =                               STREAMFLOW =                  
     GW BOUNDARY FLOW =                         GW BOUNDARY FLOW =                  


                                    OUT                                        OUT
                                    ---                                        ---
   EVAPOTRANSPIRATION =        2.7945D+08     EVAPOTRANSPIRATION =        4247060.53
           STREAMFLOW =        5.6884D+07             STREAMFLOW =         203682.78
     GW BOUNDARY FLOW =                         GW BOUNDARY FLOW =                  

   INFLOWS - OUTFLOWS =        3.1694D+08     INFLOWS - OUTFLOWS =       -4450743.31
             --------                                   --------

 TOTAL STORAGE CHANGE =        3.1230D+08         STORAGE CHANGE =       -4471217.51
       --------------                             --------------
         LAND SURFACE =        1.8629D+08           LAND SURFACE =       -6808850.13
            SOIL ZONE =        2.8286D+07              SOIL ZONE =         -15705.49
     UNSATURATED ZONE =        3332837.01       UNSATURATED ZONE =         340096.01
       SATURATED ZONE =       -1.5124D+07         SATURATED ZONE =         293335.59
                LAKES =        1.0952D+08                  LAKES =        1719906.50

 OVERALL BUDGET ERROR =        4639182.72           BUDGET ERROR =          20474.21


  PERCENT DISCREPANCY =              0.71    PERCENT DISCREPANCY =              0.46



1
 SUMMARY VOLUMETRIC BUDGET FOR GSFLOW 
 DATE: 04 14 1981              CUMULATIVE TIME STEP:     196
 MODFLOW STRESS PERIOD      1     CURRENT TIME STEP:     196     ITERATIONS:      37

 -----------------------------------------------------------------------------------

   CUMULATIVE VOLUMES               L**3   RATES FOR THIS TIME STEP           L**3/T
   ------------------                      ------------------------

                                     IN                                         IN
                                     --                                         --
        PRECIPITATION =        6.5328D+08          PRECIPITATION =                  
           STREAMFLOW =                               STREAMFLOW =                  
     GW BOUNDARY FLOW =                         GW BOUNDARY FLOW =                  


                                    OUT                                        OUT
                                    ---                                        ---
   EVAPOTRANSPIRATION =        3.0928D+08     EVAPOTRANSPIRATION =        5170949.64
           STREAMFLOW =        5.8130D+07             STREAMFLOW =         172000.22
     GW BOUNDARY FLOW =                         GW BOUNDARY FLOW =                  

   INFLOWS - OUTFLOWS =        2.8587D+08     INFLOWS - OUTFLOWS =       -5342949.86
             --------                                   --------

 TOTAL STORAGE CHANGE =        2.8105D+08         STORAGE CHANGE =       -5361811.49
       --------------                             --------------
         LAND SURFACE =        1.4105D+08           LAND SURFACE =       -7353372.32
            SOIL ZONE =        2.3831D+07              SOIL ZONE =        -908164.69
     UNSATURATED ZONE =        5329657.91       UNSATURATED ZONE =         248326.48
       SATURATED ZONE =       -1.3471D+07         SATURATED ZONE =         268714.03
                LAKES =        1.2431D+08                  LAKES =        2382685.00

 OVERALL BUDGET ERROR =        4825337.05           BUDGET ERROR =          18861.63


  PERCENT DISCREPANCY =              0.74    PERCENT DISCREPANCY =              0.35



1
 SUMMARY VOLUMETRIC BUDGET FOR GSFLOW 
 DATE: 04 21 1981              CUMULATIVE TIME STEP:     203
 MODFLOW STRESS PERIOD      1     CURRENT TIME STEP:     203     ITERATIONS:      53

 -----------------------------------------------------------------------------------

   CUMULATIVE VOLUMES               L**3   RATES FOR THIS TIME STEP           L**3/T
   ------------------                      ------------------------

                                     IN                                         IN
                                     --                                         --
        PRECIPITATION =        6.7418D+08          PRECIPITATION =                  
           STREAMFLOW =                               STREAMFLOW =                  
     GW BOUNDARY FLOW =                         GW BOUNDARY FLOW =                  


                                    OUT                                        OUT
                                    ---                                        ---
   EVAPOTRANSPIRATION =        3.3938D+08     EVAPOTRANSPIRATION =        5676352.34
           STREAMFLOW =        5.9345D+07             STREAMFLOW =         169579.17
     GW BOUNDARY FLOW =                         GW BOUNDARY FLOW =                  

   INFLOWS - OUTFLOWS =        2.7546D+08     INFLOWS - OUTFLOWS =       -5845931.51
             --------                                   --------

 TOTAL STORAGE CHANGE =        2.7073D+08         STORAGE CHANGE =       -5846248.95
       --------------                             --------------
         LAND SURFACE =        1.1854D+08           LAND SURFACE =       -3228226.31
            SOIL ZONE =        2.1962D+07              SOIL ZONE =       -2074021.59
     UNSATURATED ZONE =        6431409.91       UNSATURATED ZONE =          91289.05
       SATURATED ZONE =       -1.3274D+07         SATURATED ZONE =         -37063.78
                LAKES =        1.3707D+08                  LAKES =        -598226.31

 OVERALL BUDGET ERROR =        4725186.43           BUDGET ERROR =            317.43


  PERCENT DISCREPANCY =              0.70    PERCENT DISCREPANCY =              0.01



1
 SUMMARY VOLUMETRIC BUDGET FOR GSFLOW 
 DATE: 04 28 1981              CUMULATIVE TIME STEP:     210
 MODFLOW STRESS PERIOD      1     CURRENT TIME STEP:     210     ITERATIONS:      47

 -----------------------------------------------------------------------------------

   CUMULATIVE VOLUMES               L**3   RATES FOR THIS TIME STEP           L**3/T
   ------------------                      ------------------------

                                     IN                                         IN
                                     --                                         --
        PRECIPITATION =        6.8114D+08          PRECIPITATION =                  
           STREAMFLOW =                               STREAMFLOW =                  
     GW BOUNDARY FLOW =                         GW BOUNDARY FLOW =                  


                                    OUT                                        OUT
                                    ---                                        ---
   EVAPOTRANSPIRATION =        3.8078D+08     EVAPOTRANSPIRATION =        5632453.90
           STREAMFLOW =        6.0557D+07             STREAMFLOW =         169029.37
     GW BOUNDARY FLOW =                         GW BOUNDARY FLOW =                  

   INFLOWS - OUTFLOWS =        2.3981D+08     INFLOWS - OUTFLOWS =       -5801483.27
             --------                                   --------

 TOTAL STORAGE CHANGE =        2.3508D+08         STORAGE CHANGE =       -5797681.13
       --------------                             --------------
         LAND SURFACE =        9.3061D+07           LAND SURFACE =       -4036144.06
            SOIL ZONE =        1.1933D+07              SOIL ZONE =       -1673560.39
     UNSATURATED ZONE =        6507543.27       UNSATURATED ZONE =         -36534.65
       SATURATED ZONE =       -1.3130D+07         SATURATED ZONE =         113443.55
                LAKES =        1.3671D+08                  LAKES =        -164885.58

 OVERALL BUDGET ERROR =        4726299.95           BUDGET ERROR =          -3802.14


  PERCENT DISCREPANCY =              0.70    PERCENT DISCREPANCY =             -0.07



1
 SUMMARY VOLUMETRIC BUDGET FOR GSFLOW 
 DATE: 05 05 1981              CUMULATIVE TIME STEP:     217
 MODFLOW STRESS PERIOD      1     CURRENT TIME STEP:     217     ITERATIONS:      69

 -----------------------------------------------------------------------------------

   CUMULATIVE VOLUMES               L**3   RATES FOR THIS TIME STEP           L**3/T
   ------------------                      ------------------------

                                     IN                                         IN
                                     --                                         --
        PRECIPITATION =        6.8811D+08          PRECIPITATION =                  
           STREAMFLOW =                               STREAMFLOW =                  
     GW BOUNDARY FLOW =                         GW BOUNDARY FLOW =                  


                                    OUT                                        OUT
                                    ---                                        ---
   EVAPOTRANSPIRATION =        4.1880D+08     EVAPOTRANSPIRATION =        3777695.72
           STREAMFLOW =        6.1775D+07             STREAMFLOW =         173796.00
     GW BOUNDARY FLOW =                         GW BOUNDARY FLOW =                  

   INFLOWS - OUTFLOWS =        2.0753D+08     INFLOWS - OUTFLOWS =       -3951491.72
             --------                                   --------

 TOTAL STORAGE CHANGE =        2.0279D+08         STORAGE CHANGE =       -3958406.04
       --------------                             --------------
         LAND SURFACE =        6.7797D+07           LAND SURFACE =       -2954584.92
            SOIL ZONE =        5263544.46              SOIL ZONE =        -923122.35
     UNSATURATED ZONE =        5141156.67       UNSATURATED ZONE =         -70657.05
       SATURATED ZONE =       -1.2197D+07         SATURATED ZONE =         -12967.38
                LAKES =        1.3679D+08                  LAKES =           2925.67

 OVERALL BUDGET ERROR =        4738539.70           BUDGET ERROR =           6914.32


  PERCENT DISCREPANCY =              0.69    PERCENT DISCREPANCY =              0.17



1
 SUMMARY VOLUMETRIC BUDGET FOR GSFLOW 
 DATE: 05 12 1981              CUMULATIVE TIME STEP:     224
 MODFLOW STRESS PERIOD      1     CURRENT TIME STEP:     224     ITERATIONS:      62

 -----------------------------------------------------------------------------------

   CUMULATIVE VOLUMES               L**3   RATES FOR THIS TIME STEP           L**3/T
   ------------------                      ------------------------

                                     IN                                         IN
                                     --                                         --
        PRECIPITATION =        6.8811D+08          PRECIPITATION =                  
           STREAMFLOW =                               STREAMFLOW =                  
     GW BOUNDARY FLOW =                         GW BOUNDARY FLOW =                  


                                    OUT                                        OUT
                                    ---                                        ---
   EVAPOTRANSPIRATION =        4.4717D+08     EVAPOTRANSPIRATION =        4487216.97
           STREAMFLOW =        6.2972D+07             STREAMFLOW =         168853.17
     GW BOUNDARY FLOW =                         GW BOUNDARY FLOW =                  

   INFLOWS - OUTFLOWS =        1.7797D+08     INFLOWS - OUTFLOWS =       -4656070.14
             --------                                   --------

 TOTAL STORAGE CHANGE =        1.7324D+08         STORAGE CHANGE =       -4651991.71
       --------------                             --------------
         LAND SURFACE =        4.4652D+07           LAND SURFACE =       -3401591.14
            SOIL ZONE =       -1374525.42              SOIL ZONE =        -950626.72
     UNSATURATED ZONE =        2970351.08       UNSATURATED ZONE =        -839301.55
       SATURATED ZONE =       -1.0828D+07         SATURATED ZONE =         540230.75
                LAKES =        1.3782D+08                  LAKES =           -703.07

 OVERALL BUDGET ERROR =        4733080.58           BUDGET ERROR =          -4078.43


  PERCENT DISCREPANCY =              0.69    PERCENT DISCREPANCY =             -0.09



1
 SUMMARY VOLUMETRIC BUDGET FOR GSFLOW 
 DATE: 05 19 1981              CUMULATIVE TIME STEP:     231
 MODFLOW STRESS PERIOD      1     CURRENT TIME STEP:     231     ITERATIONS:      42

 -----------------------------------------------------------------------------------

   CUMULATIVE VOLUMES               L**3   RATES FOR THIS TIME STEP           L**3/T
   ------------------                      ------------------------

                                     IN                                         IN
                                     --                                         --
        PRECIPITATION =        7.4671D+08          PRECIPITATION =        3447112.78
           STREAMFLOW =                               STREAMFLOW =                  
     GW BOUNDARY FLOW =                         GW BOUNDARY FLOW =                  


                                    OUT                                        OUT
                                    ---                                        ---
   EVAPOTRANSPIRATION =        4.6526D+08     EVAPOTRANSPIRATION =        1758746.38
           STREAMFLOW =        6.4162D+07             STREAMFLOW =         172527.06
     GW BOUNDARY FLOW =                         GW BOUNDARY FLOW =                  

   INFLOWS - OUTFLOWS =        2.1729D+08     INFLOWS - OUTFLOWS =        1515839.34
             --------                                   --------

 TOTAL STORAGE CHANGE =        2.1269D+08         STORAGE CHANGE =        1519881.40
       --------------                             --------------
         LAND SURFACE =        4.8302D+07           LAND SURFACE =       -3469349.19
            SOIL ZONE =        1.0106D+07              SOIL ZONE =        2135671.40
     UNSATURATED ZONE =        2786420.43       UNSATURATED ZONE =         -17133.30
       SATURATED ZONE =       -1.0368D+07         SATURATED ZONE =          74311.25
                LAKES =        1.6186D+08                  LAKES =        2796381.25

 OVERALL BUDGET ERROR =        4598490.48           BUDGET ERROR =          -4042.07


  PERCENT DISCREPANCY =              0.62    PERCENT DISCREPANCY =             -0.12



1
 SUMMARY VOLUMETRIC BUDGET FOR GSFLOW 
 DATE: 05 26 1981              CUMULATIVE TIME STEP:     238
 MODFLOW STRESS PERIOD      1     CURRENT TIME STEP:     238     ITERATIONS:      16

 -----------------------------------------------------------------------------------

   CUMULATIVE VOLUMES               L**3   RATES FOR THIS TIME STEP           L**3/T
   ------------------                      ------------------------

                                     IN                                         IN
                                     --                                         --
        PRECIPITATION =        7.7429D+08          PRECIPITATION =        1.7236D+07
           STREAMFLOW =                               STREAMFLOW =                  
     GW BOUNDARY FLOW =                         GW BOUNDARY FLOW =                  


                                    OUT                                        OUT
                                    ---                                        ---
   EVAPOTRANSPIRATION =        4.9678D+08     EVAPOTRANSPIRATION =        2648210.08
           STREAMFLOW =        6.5363D+07             STREAMFLOW =         180466.05
     GW BOUNDARY FLOW =                         GW BOUNDARY FLOW =                  

   INFLOWS - OUTFLOWS =        2.1214D+08     INFLOWS - OUTFLOWS =        1.4407D+07
             --------                                   --------

 TOTAL STORAGE CHANGE =        2.0728D+08         STORAGE CHANGE =        1.4251D+07
       --------------                             --------------
         LAND SURFACE =        3.1890D+07           LAND SURFACE =        -275022.78
            SOIL ZONE =        8675254.56              SOIL ZONE =        4719090.05
     UNSATURATED ZONE =        2621150.90       UNSATURATED ZONE =          12613.88
       SATURATED ZONE =       -9899126.75         SATURATED ZONE =         548339.56
                LAKES =        1.7400D+08                  LAKES =        9245586.00

 OVERALL BUDGET ERROR =        4859768.70           BUDGET ERROR =         156280.82


  PERCENT DISCREPANCY =              0.63    PERCENT DISCREPANCY =              0.91



1
 SUMMARY VOLUMETRIC BUDGET FOR GSFLOW 
 DATE: 06 02 1981              CUMULATIVE TIME STEP:     245
 MODFLOW STRESS PERIOD      1     CURRENT TIME STEP:     245     ITERATIONS:      64

 -----------------------------------------------------------------------------------

   CUMULATIVE VOLUMES               L**3   RATES FOR THIS TIME STEP           L**3/T
   ------------------                      ------------------------

                                     IN                                         IN
                                     --                                         --
        PRECIPITATION =        7.7429D+08          PRECIPITATION =                  
           STREAMFLOW =                               STREAMFLOW =                  
     GW BOUNDARY FLOW =                         GW BOUNDARY FLOW =                  


                                    OUT                                        OUT
                                    ---                                        ---
   EVAPOTRANSPIRATION =        5.3771D+08     EVAPOTRANSPIRATION =        5802261.85
           STREAMFLOW =        6.6583D+07             STREAMFLOW =         178725.95
     GW BOUNDARY FLOW =                         GW BOUNDARY FLOW =                  

   INFLOWS - OUTFLOWS =        1.7000D+08     INFLOWS - OUTFLOWS =       -5980987.80
             --------                                   --------

 TOTAL STORAGE CHANGE =        1.6514D+08         STORAGE CHANGE =       -5983175.15
       --------------                             --------------
         LAND SURFACE =        1.9162D+07           LAND SURFACE =       -1524432.06
            SOIL ZONE =       -7602645.83              SOIL ZONE =       -1965429.76
     UNSATURATED ZONE =       -1971510.66       UNSATURATED ZONE =        -125342.25
       SATURATED ZONE =       -8336870.91         SATURATED ZONE =        -222110.33
                LAKES =        1.6389D+08                  LAKES =       -2145860.75

 OVERALL BUDGET ERROR =        4859664.90           BUDGET ERROR =           2187.35


  PERCENT DISCREPANCY =              0.63    PERCENT DISCREPANCY =              0.04



1
 SUMMARY VOLUMETRIC BUDGET FOR GSFLOW 
 DATE: 06 09 1981              CUMULATIVE TIME STEP:     252
 MODFLOW STRESS PERIOD      1     CURRENT TIME STEP:     252     ITERATIONS:      49

 -----------------------------------------------------------------------------------

   CUMULATIVE VOLUMES               L**3   RATES FOR THIS TIME STEP           L**3/T
   ------------------                      ------------------------

                                     IN                                         IN
                                     --                                         --
        PRECIPITATION =        7.7752D+08          PRECIPITATION =                  
           STREAMFLOW =                               STREAMFLOW =                  
     GW BOUNDARY FLOW =                         GW BOUNDARY FLOW =                  


                                    OUT                                        OUT
                                    ---                                        ---
   EVAPOTRANSPIRATION =        5.7453D+08     EVAPOTRANSPIRATION =        5412269.91
           STREAMFLOW =        6.7827D+07             STREAMFLOW =         203133.83
     GW BOUNDARY FLOW =                         GW BOUNDARY FLOW =                  

   INFLOWS - OUTFLOWS =        1.3516D+08     INFLOWS - OUTFLOWS =       -5615403.74
             --------                                   --------

 TOTAL STORAGE CHANGE =        1.3029D+08         STORAGE CHANGE =       -5610369.77
       --------------                             --------------
         LAND SURFACE =        9796535.69           LAND SURFACE =        -964195.82
            SOIL ZONE =       -1.8495D+07              SOIL ZONE =       -1819892.56
     UNSATURATED ZONE =       -2800499.05       UNSATURATED ZONE =        -125955.15
       SATURATED ZONE =       -9568052.36         SATURATED ZONE =        -221511.73
                LAKES =        1.5135D+08                  LAKES =       -2478814.50

 OVERALL BUDGET ERROR =        4878013.52           BUDGET ERROR =          -5033.97


  PERCENT DISCREPANCY =              0.63    PERCENT DISCREPANCY =             -0.09



1
 SUMMARY VOLUMETRIC BUDGET FOR GSFLOW 
 DATE: 06 16 1981              CUMULATIVE TIME STEP:     259
 MODFLOW STRESS PERIOD      1     CURRENT TIME STEP:     259     ITERATIONS:      19

 -----------------------------------------------------------------------------------

   CUMULATIVE VOLUMES               L**3   RATES FOR THIS TIME STEP           L**3/T
   ------------------                      ------------------------

                                     IN                                         IN
                                     --                                         --
        PRECIPITATION =        7.7752D+08          PRECIPITATION =                  
           STREAMFLOW =                               STREAMFLOW =                  
     GW BOUNDARY FLOW =                         GW BOUNDARY FLOW =                  


                                    OUT                                        OUT
                                    ---                                        ---
   EVAPOTRANSPIRATION =        6.0223D+08     EVAPOTRANSPIRATION =        4686176.21
           STREAMFLOW =        7.0935D+07             STREAMFLOW =         702199.94
     GW BOUNDARY FLOW =                         GW BOUNDARY FLOW =                  

   INFLOWS - OUTFLOWS =        1.0436D+08     INFLOWS - OUTFLOWS =       -5388376.15
             --------                                   --------

 TOTAL STORAGE CHANGE =        9.9482D+07         STORAGE CHANGE =       -5387638.39
[...]
           STREAMFLOW =        1.6168D+09             STREAMFLOW =        4966705.50
     GW BOUNDARY FLOW =                         GW BOUNDARY FLOW =                  

   INFLOWS - OUTFLOWS =        1.0334D+09     INFLOWS - OUTFLOWS =        1138257.40
             --------                                   --------

 TOTAL STORAGE CHANGE =        1.0131D+09         STORAGE CHANGE =        1119355.36
       --------------                             --------------
         LAND SURFACE =        3.3540D+08           LAND SURFACE =        4606953.50
            SOIL ZONE =        5174776.88              SOIL ZONE =         -72441.39
     UNSATURATED ZONE =        1073394.16       UNSATURATED ZONE =          18533.38
       SATURATED ZONE =       -5.4561D+07         SATURATED ZONE =        -162830.12
                LAKES =        7.2603D+08                  LAKES =       -3270860.00

 OVERALL BUDGET ERROR =        2.0296D+07           BUDGET ERROR =          18902.03


  PERCENT DISCREPANCY =              0.37    PERCENT DISCREPANCY =              0.29



1
 SUMMARY VOLUMETRIC BUDGET FOR GSFLOW 
 DATE: 12 06 1983              CUMULATIVE TIME STEP:    1162
 MODFLOW STRESS PERIOD      1     CURRENT TIME STEP:    1162     ITERATIONS:       4

 -----------------------------------------------------------------------------------

   CUMULATIVE VOLUMES               L**3   RATES FOR THIS TIME STEP           L**3/T
   ------------------                      ------------------------

                                     IN                                         IN
                                     --                                         --
        PRECIPITATION =        5.6038D+09          PRECIPITATION =        3198161.89
           STREAMFLOW =                               STREAMFLOW =                  
     GW BOUNDARY FLOW =                         GW BOUNDARY FLOW =                  


                                    OUT                                        OUT
                                    ---                                        ---
   EVAPOTRANSPIRATION =        2.8998D+09     EVAPOTRANSPIRATION =         185762.45
           STREAMFLOW =        1.6522D+09             STREAMFLOW =        5064639.00
     GW BOUNDARY FLOW =                         GW BOUNDARY FLOW =                  

   INFLOWS - OUTFLOWS =        1.0519D+09     INFLOWS - OUTFLOWS =       -2052239.55
             --------                                   --------

 TOTAL STORAGE CHANGE =        1.0313D+09         STORAGE CHANGE =       -2080392.36
       --------------                             --------------
         LAND SURFACE =        3.7376D+08           LAND SURFACE =        2296320.51
            SOIL ZONE =        5743388.34              SOIL ZONE =        -132479.28
     UNSATURATED ZONE =        1368061.79       UNSATURATED ZONE =          28065.33
       SATURATED ZONE =       -5.5614D+07         SATURATED ZONE =        -161434.67
                LAKES =        7.0604D+08                  LAKES =       -4110864.25

 OVERALL BUDGET ERROR =        2.0563D+07           BUDGET ERROR =          28152.81


  PERCENT DISCREPANCY =              0.37    PERCENT DISCREPANCY =              0.53



1
 SUMMARY VOLUMETRIC BUDGET FOR GSFLOW 
 DATE: 12 13 1983              CUMULATIVE TIME STEP:    1169
 MODFLOW STRESS PERIOD      1     CURRENT TIME STEP:    1169     ITERATIONS:      11

 -----------------------------------------------------------------------------------

   CUMULATIVE VOLUMES               L**3   RATES FOR THIS TIME STEP           L**3/T
   ------------------                      ------------------------

                                     IN                                         IN
                                     --                                         --
        PRECIPITATION =        5.6998D+09          PRECIPITATION =        9594484.95
           STREAMFLOW =                               STREAMFLOW =                  
     GW BOUNDARY FLOW =                         GW BOUNDARY FLOW =                  


                                    OUT                                        OUT
                                    ---                                        ---
   EVAPOTRANSPIRATION =        2.9035D+09     EVAPOTRANSPIRATION =         226571.10
           STREAMFLOW =        1.6892D+09             STREAMFLOW =        5260512.00
     GW BOUNDARY FLOW =                         GW BOUNDARY FLOW =                  

   INFLOWS - OUTFLOWS =        1.1071D+09     INFLOWS - OUTFLOWS =        4107401.84
             --------                                   --------

 TOTAL STORAGE CHANGE =        1.0862D+09         STORAGE CHANGE =        4083046.81
       --------------                             --------------
         LAND SURFACE =        4.3778D+08           LAND SURFACE =        7019560.16
            SOIL ZONE =        6989309.49              SOIL ZONE =        -183099.63
     UNSATURATED ZONE =        1724938.82       UNSATURATED ZONE =          40068.85
       SATURATED ZONE =       -5.6229D+07         SATURATED ZONE =        -169665.33
                LAKES =        6.9593D+08                  LAKES =       -2623817.25

 OVERALL BUDGET ERROR =        2.0905D+07           BUDGET ERROR =          24355.04


  PERCENT DISCREPANCY =              0.37    PERCENT DISCREPANCY =              0.25



1
 SUMMARY VOLUMETRIC BUDGET FOR GSFLOW 
 DATE: 12 20 1983              CUMULATIVE TIME STEP:    1176
 MODFLOW STRESS PERIOD      1     CURRENT TIME STEP:    1176     ITERATIONS:      13

 -----------------------------------------------------------------------------------

   CUMULATIVE VOLUMES               L**3   RATES FOR THIS TIME STEP           L**3/T
   ------------------                      ------------------------

                                     IN                                         IN
                                     --                                         --
        PRECIPITATION =        5.7158D+09          PRECIPITATION =                  
           STREAMFLOW =                               STREAMFLOW =                  
     GW BOUNDARY FLOW =                         GW BOUNDARY FLOW =                  


                                    OUT                                        OUT
                                    ---                                        ---
   EVAPOTRANSPIRATION =        2.9113D+09     EVAPOTRANSPIRATION =         347146.36
           STREAMFLOW =        1.7277D+09             STREAMFLOW =        5578472.50
     GW BOUNDARY FLOW =                         GW BOUNDARY FLOW =                  

   INFLOWS - OUTFLOWS =        1.0768D+09     INFLOWS - OUTFLOWS =       -5925618.86
             --------                                   --------

 TOTAL STORAGE CHANGE =        1.0555D+09         STORAGE CHANGE =       -5949288.50
       --------------                             --------------
         LAND SURFACE =        4.4092D+08           LAND SURFACE =        -229898.36
            SOIL ZONE =        7725612.86              SOIL ZONE =        -181725.97
     UNSATURATED ZONE =        2220137.41       UNSATURATED ZONE =          29053.36
       SATURATED ZONE =       -5.7174D+07         SATURATED ZONE =        -180989.53
                LAKES =        6.6183D+08                  LAKES =       -5385728.00

 OVERALL BUDGET ERROR =        2.1233D+07           BUDGET ERROR =          23669.63


  PERCENT DISCREPANCY =              0.37    PERCENT DISCREPANCY =              0.40



1
 SUMMARY VOLUMETRIC BUDGET FOR GSFLOW 
 DATE: 12 27 1983              CUMULATIVE TIME STEP:    1183
 MODFLOW STRESS PERIOD      1     CURRENT TIME STEP:    1183     ITERATIONS:      21

 -----------------------------------------------------------------------------------

   CUMULATIVE VOLUMES               L**3   RATES FOR THIS TIME STEP           L**3/T
   ------------------                      ------------------------

                                     IN                                         IN
                                     --                                         --
        PRECIPITATION =        5.8917D+09          PRECIPITATION =        9594484.95
           STREAMFLOW =                               STREAMFLOW =                  
     GW BOUNDARY FLOW =                         GW BOUNDARY FLOW =                  


                                    OUT                                        OUT
                                    ---                                        ---
   EVAPOTRANSPIRATION =        2.9135D+09     EVAPOTRANSPIRATION =         396727.83
           STREAMFLOW =        1.7667D+09             STREAMFLOW =        5677393.00
     GW BOUNDARY FLOW =                         GW BOUNDARY FLOW =                  

   INFLOWS - OUTFLOWS =        1.2114D+09     INFLOWS - OUTFLOWS =        3520364.11
             --------                                   --------

 TOTAL STORAGE CHANGE =        1.1899D+09         STORAGE CHANGE =        3459447.96
       --------------                             --------------
         LAND SURFACE =        5.6571D+08           LAND SURFACE =        5841371.51
            SOIL ZONE =        8459785.51              SOIL ZONE =         228276.56
     UNSATURATED ZONE =        2507726.65       UNSATURATED ZONE =          97374.37
       SATURATED ZONE =       -5.7812D+07         SATURATED ZONE =         -84594.48
                LAKES =        6.7103D+08                  LAKES =       -2622980.00

 OVERALL BUDGET ERROR =        2.1521D+07           BUDGET ERROR =          60916.15


  PERCENT DISCREPANCY =              0.37    PERCENT DISCREPANCY =              0.64



1
 SUMMARY VOLUMETRIC BUDGET FOR GSFLOW 
 DATE: 01 03 1984              CUMULATIVE TIME STEP:    1190
 MODFLOW STRESS PERIOD      1     CURRENT TIME STEP:    1190     ITERATIONS:       4

 -----------------------------------------------------------------------------------

   CUMULATIVE VOLUMES               L**3   RATES FOR THIS TIME STEP           L**3/T
   ------------------                      ------------------------

                                     IN                                         IN
                                     --                                         --
        PRECIPITATION =        5.9235D+09          PRECIPITATION =                  
           STREAMFLOW =                               STREAMFLOW =                  
     GW BOUNDARY FLOW =                         GW BOUNDARY FLOW =                  


                                    OUT                                        OUT
                                    ---                                        ---
   EVAPOTRANSPIRATION =        2.9199D+09     EVAPOTRANSPIRATION =        1447998.41
           STREAMFLOW =        1.8063D+09             STREAMFLOW =        5603065.50
     GW BOUNDARY FLOW =                         GW BOUNDARY FLOW =                  

   INFLOWS - OUTFLOWS =        1.1972D+09     INFLOWS - OUTFLOWS =       -7051063.91
             --------                                   --------

 TOTAL STORAGE CHANGE =        1.1755D+09         STORAGE CHANGE =       -7084550.06
       --------------                             --------------
         LAND SURFACE =        5.7870D+08           LAND SURFACE =        -976138.38
            SOIL ZONE =        9171351.52              SOIL ZONE =        -189289.90
     UNSATURATED ZONE =        3068311.55       UNSATURATED ZONE =          41930.06
       SATURATED ZONE =       -5.8685D+07         SATURATED ZONE =        -195736.34
                LAKES =        6.4325D+08                  LAKES =       -5765315.50

 OVERALL BUDGET ERROR =        2.1722D+07           BUDGET ERROR =          33486.16


  PERCENT DISCREPANCY =              0.37    PERCENT DISCREPANCY =              0.47



1
 SUMMARY VOLUMETRIC BUDGET FOR GSFLOW 
 DATE: 01 10 1984              CUMULATIVE TIME STEP:    1197
 MODFLOW STRESS PERIOD      1     CURRENT TIME STEP:    1197     ITERATIONS:      12

 -----------------------------------------------------------------------------------

   CUMULATIVE VOLUMES               L**3   RATES FOR THIS TIME STEP           L**3/T
   ------------------                      ------------------------

                                     IN                                         IN
                                     --                                         --
        PRECIPITATION =        5.9235D+09          PRECIPITATION =                  
           STREAMFLOW =                               STREAMFLOW =                  
     GW BOUNDARY FLOW =                         GW BOUNDARY FLOW =                  


                                    OUT                                        OUT
                                    ---                                        ---
   EVAPOTRANSPIRATION =        2.9323D+09     EVAPOTRANSPIRATION =        1729311.51
           STREAMFLOW =        1.8438D+09             STREAMFLOW =        5235932.00
     GW BOUNDARY FLOW =                         GW BOUNDARY FLOW =                  

   INFLOWS - OUTFLOWS =        1.1474D+09     INFLOWS - OUTFLOWS =       -6965243.51
             --------                                   --------

 TOTAL STORAGE CHANGE =        1.1254D+09         STORAGE CHANGE =       -6984353.54
       --------------                             --------------
         LAND SURFACE =        5.6643D+08           LAND SURFACE =       -2016428.23
            SOIL ZONE =        1.0295D+07              SOIL ZONE =         297566.30
     UNSATURATED ZONE =        3433844.36       UNSATURATED ZONE =          70847.41
       SATURATED ZONE =       -5.9489D+07         SATURATED ZONE =         -62258.52
                LAKES =        6.0474D+08                  LAKES =       -5274080.50

 OVERALL BUDGET ERROR =        2.1945D+07           BUDGET ERROR =          19110.02


  PERCENT DISCREPANCY =              0.37    PERCENT DISCREPANCY =              0.27



1
 SUMMARY VOLUMETRIC BUDGET FOR GSFLOW 
 DATE: 01 17 1984              CUMULATIVE TIME STEP:    1204
 MODFLOW STRESS PERIOD      1     CURRENT TIME STEP:    1204     ITERATIONS:       5

 -----------------------------------------------------------------------------------

   CUMULATIVE VOLUMES               L**3   RATES FOR THIS TIME STEP           L**3/T
   ------------------                      ------------------------

                                     IN                                         IN
                                     --                                         --
        PRECIPITATION =        5.9475D+09          PRECIPITATION =                  
           STREAMFLOW =                               STREAMFLOW =                  
     GW BOUNDARY FLOW =                         GW BOUNDARY FLOW =                  


                                    OUT                                        OUT
                                    ---                                        ---
   EVAPOTRANSPIRATION =        2.9361D+09     EVAPOTRANSPIRATION =         514656.09
           STREAMFLOW =        1.8795D+09             STREAMFLOW =        5015583.00
     GW BOUNDARY FLOW =                         GW BOUNDARY FLOW =                  

   INFLOWS - OUTFLOWS =        1.1319D+09     INFLOWS - OUTFLOWS =       -5530239.09
             --------                                   --------

 TOTAL STORAGE CHANGE =        1.1099D+09         STORAGE CHANGE =       -5539283.25
       --------------                             --------------
         LAND SURFACE =        5.8186D+08           LAND SURFACE =        -369940.34
            SOIL ZONE =        9287829.01              SOIL ZONE =        -102273.92
     UNSATURATED ZONE =        3509123.12       UNSATURATED ZONE =         -10859.88
       SATURATED ZONE =       -6.0524D+07         SATURATED ZONE =        -146784.61
                LAKES =        5.7574D+08                  LAKES =       -4909424.50

 OVERALL BUDGET ERROR =        2.2009D+07           BUDGET ERROR =           9044.15


  PERCENT DISCREPANCY =              0.37    PERCENT DISCREPANCY =              0.16



1
 SUMMARY VOLUMETRIC BUDGET FOR GSFLOW 
 DATE: 01 24 1984              CUMULATIVE TIME STEP:    1211
 MODFLOW STRESS PERIOD      1     CURRENT TIME STEP:    1211     ITERATIONS:       9

 -----------------------------------------------------------------------------------

   CUMULATIVE VOLUMES               L**3   RATES FOR THIS TIME STEP           L**3/T
   ------------------                      ------------------------

                                     IN                                         IN
                                     --                                         --
        PRECIPITATION =        5.9535D+09          PRECIPITATION =                  
           STREAMFLOW =                               STREAMFLOW =                  
     GW BOUNDARY FLOW =                         GW BOUNDARY FLOW =                  


                                    OUT                                        OUT
                                    ---                                        ---
   EVAPOTRANSPIRATION =        2.9415D+09     EVAPOTRANSPIRATION =        1048359.82
           STREAMFLOW =        1.9143D+09             STREAMFLOW =        4917688.50
     GW BOUNDARY FLOW =                         GW BOUNDARY FLOW =                  

   INFLOWS - OUTFLOWS =        1.0977D+09     INFLOWS - OUTFLOWS =       -5966048.32
             --------                                   --------

 TOTAL STORAGE CHANGE =        1.0756D+09         STORAGE CHANGE =       -5976239.91
       --------------                             --------------
         LAND SURFACE =        5.8317D+08           LAND SURFACE =        -583964.56
            SOIL ZONE =        8749520.65              SOIL ZONE =         -66576.61
     UNSATURATED ZONE =        3266703.76       UNSATURATED ZONE =         -41570.62
       SATURATED ZONE =       -6.1473D+07         SATURATED ZONE =        -137779.12
                LAKES =        5.4189D+08                  LAKES =       -5146349.00

 OVERALL BUDGET ERROR =        2.2086D+07           BUDGET ERROR =          10191.59


  PERCENT DISCREPANCY =              0.37    PERCENT DISCREPANCY =              0.17



 Number of time steps:   1217;  Number of non-convergence:   0
 MF iterations:         22486;  SZ iterations:           22534
 Average MF iterations: 18.48;  Average SZ iterations:   18.52
 Maximum MF iterations:   138;  Maximum SZ iterations:     138

MF iteration distribution:      0   20   76  102   70   48   34   33   43   44
                               43   40   49   52   18   36   20   10   36   23
                               25   18   24   15   14   23   11   12   23    8
                               18   12   21    3   28   10   16    8    8    9
                                8    9    9    5    4   11    4    7    7    2
                                4    5    2    6    3    2    2    1    1    2
                                3    2    1    3    0    0    0    0    2    1
                                0    1    0    0    0    0    1    0    0    6

SZ computation distribution:    0   17   79  101   71   46   34   34   42   45
                               44   36   50   49   22   33   23   11   29   29
                               26   18   25   15   14   23   11   12   23    8
                               18   12   21    3   28   10   16    8    8    9
                                8    9    9    5    4   11    4    7    6    3
                                4    5    2    6    3    2    2    1    1    2
                                3    2    1    3    0    0    0    0    2    1
                                0    1    0    0    0    0    1    0    0    6

