1
 SUMMARY VOLUMETRIC BUDGET FOR GSFLOW 
 DATE: 10 07 1980              CUMULATIVE TIME STEP:       7
 MODFLOW STRESS PERIOD      1     CURRENT TIME STEP:       7     ITERATIONS:      14

 -----------------------------------------------------------------------------------

   CUMULATIVE VOLUMES               L**3   RATES FOR THIS TIME STEP           L**3/T
   ------------------                      ------------------------

                                     IN                                         IN
                                     --                                         --
        PRECIPITATION =                            PRECIPITATION =                  
           STREAMFLOW =                               STREAMFLOW =                  
     GW BOUNDARY FLOW =                         GW BOUNDARY FLOW =                  


                                    OUT                                        OUT
                                    ---                                        ---
   EVAPOTRANSPIRATION =        1.5511D+07     EVAPOTRANSPIRATION =        1478881.36
           STREAMFLOW =        1672058.77             STREAMFLOW =         183556.67
     GW BOUNDARY FLOW =                         GW BOUNDARY FLOW =                  

   INFLOWS - OUTFLOWS =       -1.7183D+07     INFLOWS - OUTFLOWS =       -1662438.04
             --------                                   --------

 TOTAL STORAGE CHANGE =       -1.7157D+07         STORAGE CHANGE =       -1664381.50
       --------------                             --------------
         LAND SURFACE =                             LAND SURFACE =                  
            SOIL ZONE =       -5762960.39              SOIL ZONE =        -270465.11
     UNSATURATED ZONE =       -1007862.74       UNSATURATED ZONE =         -54922.61
       SATURATED ZONE =       -1300626.94         SATURATED ZONE =        -269871.91
                LAKES =       -9085744.75                  LAKES =       -1069121.88

 OVERALL BUDGET ERROR =         -25985.08           BUDGET ERROR =           1943.46


  PERCENT DISCREPANCY =             -0.15    PERCENT DISCREPANCY =              0.12



1
 SUMMARY VOLUMETRIC BUDGET FOR GSFLOW 
 DATE: 10 14 1980              CUMULATIVE TIME STEP:      14
 MODFLOW STRESS PERIOD      1     CURRENT TIME STEP:      14     ITERATIONS:       3

 -----------------------------------------------------------------------------------

   CUMULATIVE VOLUMES               L**3   RATES FOR THIS TIME STEP           L**3/T
   ------------------                      ------------------------

                                     IN                                         IN
                                     --                                         --
        PRECIPITATION =        1.3442D+07          PRECIPITATION =        6721104.51
           STREAMFLOW =                               STREAMFLOW =                  
     GW BOUNDARY FLOW =                         GW BOUNDARY FLOW =                  


                                    OUT                                        OUT
                                    ---                                        ---
   EVAPOTRANSPIRATION =        2.3219D+07     EVAPOTRANSPIRATION =         507117.51
           STREAMFLOW =        2279257.54             STREAMFLOW =          34825.50
     GW BOUNDARY FLOW =                         GW BOUNDARY FLOW =                  

   INFLOWS - OUTFLOWS =       -1.2056D+07     INFLOWS - OUTFLOWS =        6179161.50
             --------                                   --------

 TOTAL STORAGE CHANGE =       -1.2123D+07         STORAGE CHANGE =        6136212.27
       --------------                             --------------
         LAND SURFACE =        2292330.03           LAND SURFACE =        1396242.25
            SOIL ZONE =         153424.49              SOIL ZONE =        3131505.83
     UNSATURATED ZONE =       -1444973.55       UNSATURATED ZONE =         -57230.30
       SATURATED ZONE =       -2729794.77         SATURATED ZONE =        -121178.27
                LAKES =       -1.0394D+07                  LAKES =        1786872.75

 OVERALL BUDGET ERROR =          66946.76           BUDGET ERROR =          42949.23


  PERCENT DISCREPANCY =              0.26    PERCENT DISCREPANCY =              0.64



1
 SUMMARY VOLUMETRIC BUDGET FOR GSFLOW 
 DATE: 10 21 1980              CUMULATIVE TIME STEP:      21
 MODFLOW STRESS PERIOD      1     CURRENT TIME STEP:      21     ITERATIONS:       3

 -----------------------------------------------------------------------------------

   CUMULATIVE VOLUMES               L**3   RATES FOR THIS TIME STEP           L**3/T
   ------------------                      ------------------------

                                     IN                                         IN
                                     --                                         --
        PRECIPITATION =        1.6803D+07          PRECIPITATION =                  
           STREAMFLOW =                               STREAMFLOW =                  
     GW BOUNDARY FLOW =                         GW BOUNDARY FLOW =                  


                                    OUT                                        OUT
                                    ---                                        ---
   EVAPOTRANSPIRATION =        3.0233D+07     EVAPOTRANSPIRATION =        1467065.80
           STREAMFLOW =        3039696.79             STREAMFLOW =         364392.81
     GW BOUNDARY FLOW =                         GW BOUNDARY FLOW =                  

   INFLOWS - OUTFLOWS =       -1.6470D+07     INFLOWS - OUTFLOWS =       -1831458.61
             --------                                   --------

 TOTAL STORAGE CHANGE =       -1.6550D+07         STORAGE CHANGE =       -1828177.75
       --------------                             --------------
         LAND SURFACE =         450938.45           LAND SURFACE =        -157820.79
            SOIL ZONE =        -328518.30              SOIL ZONE =        -679592.20
     UNSATURATED ZONE =       -1881070.00       UNSATURATED ZONE =         -58658.83
       SATURATED ZONE =       -3772063.53         SATURATED ZONE =        -158367.38
                LAKES =       -1.1019D+07                  LAKES =        -773738.56

 OVERALL BUDGET ERROR =          79956.10           BUDGET ERROR =          -3280.86


  PERCENT DISCREPANCY =              0.24    PERCENT DISCREPANCY =             -0.18



1
 SUMMARY VOLUMETRIC BUDGET FOR GSFLOW 
 DATE: 10 28 1980              CUMULATIVE TIME STEP:      28
 MODFLOW STRESS PERIOD      1     CURRENT TIME STEP:      28     ITERATIONS:       4

 -----------------------------------------------------------------------------------

   CUMULATIVE VOLUMES               L**3   RATES FOR THIS TIME STEP           L**3/T
   ------------------                      ------------------------

                                     IN                                         IN
                                     --                                         --
        PRECIPITATION =        4.0327D+07          PRECIPITATION =                  
           STREAMFLOW =                               STREAMFLOW =                  
     GW BOUNDARY FLOW =                         GW BOUNDARY FLOW =                  


                                    OUT                                        OUT
                                    ---                                        ---
   EVAPOTRANSPIRATION =        3.7280D+07     EVAPOTRANSPIRATION =         461412.66
           STREAMFLOW =        5483164.94             STREAMFLOW =         342843.84
     GW BOUNDARY FLOW =                         GW BOUNDARY FLOW =                  

   INFLOWS - OUTFLOWS =       -2436232.61     INFLOWS - OUTFLOWS =        -804256.51
             --------                                   --------

 TOTAL STORAGE CHANGE =       -3044990.18         STORAGE CHANGE =        -769333.66
       --------------                             --------------
         LAND SURFACE =        4657898.42           LAND SURFACE =        -166815.52
            SOIL ZONE =        7112414.97              SOIL ZONE =        -271774.30
     UNSATURATED ZONE =       -2174529.24       UNSATURATED ZONE =         -31871.42
       SATURATED ZONE =       -4523339.86         SATURATED ZONE =        -126025.08
                LAKES =       -8117434.46                  LAKES =        -172847.34

 OVERALL BUDGET ERROR =         608757.57           BUDGET ERROR =         -34922.85

  ***WARNING, FLUX RATES OFF > 3%

  PERCENT DISCREPANCY =              1.41    PERCENT DISCREPANCY =             -4.44



1
 SUMMARY VOLUMETRIC BUDGET FOR GSFLOW 
 DATE: 11 04 1980              CUMULATIVE TIME STEP:      35
 MODFLOW STRESS PERIOD      1     CURRENT TIME STEP:      35     ITERATIONS:       7

 -----------------------------------------------------------------------------------

   CUMULATIVE VOLUMES               L**3   RATES FOR THIS TIME STEP           L**3/T
   ------------------                      ------------------------

                                     IN                                         IN
                                     --                                         --
        PRECIPITATION =        5.0408D+07          PRECIPITATION =                  
           STREAMFLOW =                               STREAMFLOW =                  
     GW BOUNDARY FLOW =                         GW BOUNDARY FLOW =                  


                                    OUT                                        OUT
                                    ---                                        ---
   EVAPOTRANSPIRATION =        5.2114D+07     EVAPOTRANSPIRATION =        2794238.88
           STREAMFLOW =        7932063.29             STREAMFLOW =         350030.38
     GW BOUNDARY FLOW =                         GW BOUNDARY FLOW =                  

   INFLOWS - OUTFLOWS =       -9638045.79     INFLOWS - OUTFLOWS =       -3144269.25
             --------                                   --------

 TOTAL STORAGE CHANGE =       -1.0599D+07         STORAGE CHANGE =       -3149766.20
       --------------                             --------------
         LAND SURFACE =         206598.96           LAND SURFACE =         -41867.41
            SOIL ZONE =        3878922.70              SOIL ZONE =       -1780658.28
     UNSATURATED ZONE =       -2137064.43       UNSATURATED ZONE =         -46057.97
       SATURATED ZONE =       -5062769.88         SATURATED ZONE =        -247452.80
                LAKES =       -7484352.28                  LAKES =       -1033729.75

 OVERALL BUDGET ERROR =         960619.13           BUDGET ERROR =           5496.95


  PERCENT DISCREPANCY =              1.59    PERCENT DISCREPANCY =              0.17



1
 SUMMARY VOLUMETRIC BUDGET FOR GSFLOW 
 DATE: 11 11 1980              CUMULATIVE TIME STEP:      42
 MODFLOW STRESS PERIOD      1     CURRENT TIME STEP:      42     ITERATIONS:       5

 -----------------------------------------------------------------------------------

   CUMULATIVE VOLUMES               L**3   RATES FOR THIS TIME STEP           L**3/T
   ------------------                      ------------------------

                                     IN                                         IN
                                     --                                         --
        PRECIPITATION =        7.9485D+07          PRECIPITATION =        3230734.65
           STREAMFLOW =                               STREAMFLOW =                  
     GW BOUNDARY FLOW =                         GW BOUNDARY FLOW =                  


                                    OUT                                        OUT
                                    ---                                        ---
   EVAPOTRANSPIRATION =        6.9953D+07     EVAPOTRANSPIRATION =        1696113.67
           STREAMFLOW =        9809691.39             STREAMFLOW =         250092.14
     GW BOUNDARY FLOW =                         GW BOUNDARY FLOW =                  

   INFLOWS - OUTFLOWS =        -277562.78     INFLOWS - OUTFLOWS =        1284528.84
             --------                                   --------

 TOTAL STORAGE CHANGE =       -1502866.22         STORAGE CHANGE =        1148807.66
       --------------                             --------------
         LAND SURFACE =        3266569.49           LAND SURFACE =        -110998.46
            SOIL ZONE =        8678321.00              SOIL ZONE =         699212.15
     UNSATURATED ZONE =       -2168575.71       UNSATURATED ZONE =          39575.42
       SATURATED ZONE =       -5933054.41         SATURATED ZONE =         -35744.45
                LAKES =       -5346126.59                  LAKES =         556763.00

 OVERALL BUDGET ERROR =        1225303.43           BUDGET ERROR =         135721.18

  ***WARNING, FLUX RATES OFF > 3%

  PERCENT DISCREPANCY =              1.52    PERCENT DISCREPANCY =              4.29



1
 SUMMARY VOLUMETRIC BUDGET FOR GSFLOW 
 DATE: 11 18 1980              CUMULATIVE TIME STEP:      49
 MODFLOW STRESS PERIOD      1     CURRENT TIME STEP:      49     ITERATIONS:       3

 -----------------------------------------------------------------------------------

   CUMULATIVE VOLUMES               L**3   RATES FOR THIS TIME STEP           L**3/T
   ------------------                      ------------------------

                                     IN                                         IN
                                     --                                         --
        PRECIPITATION =        8.5946D+07          PRECIPITATION =                  
           STREAMFLOW =                               STREAMFLOW =                  
     GW BOUNDARY FLOW =                         GW BOUNDARY FLOW =                  


                                    OUT                                        OUT
                                    ---                                        ---
   EVAPOTRANSPIRATION =        7.6245D+07     EVAPOTRANSPIRATION =        1510955.20
           STREAMFLOW =        1.1638D+07             STREAMFLOW =         312770.31
     GW BOUNDARY FLOW =                         GW BOUNDARY FLOW =                  

   INFLOWS - OUTFLOWS =       -1937199.67     INFLOWS - OUTFLOWS =       -1823725.52
             --------                                   --------

 TOTAL STORAGE CHANGE =       -2898859.96         STORAGE CHANGE =       -1769379.51
       --------------                             --------------
         LAND SURFACE =        3785521.17           LAND SURFACE =        -428824.97
            SOIL ZONE =        8057475.47              SOIL ZONE =        -668178.59
     UNSATURATED ZONE =       -2095859.30       UNSATURATED ZONE =          19793.62
       SATURATED ZONE =       -7168064.04         SATURATED ZONE =        -170627.72
                LAKES =       -5477933.26                  LAKES =        -521541.84

 OVERALL BUDGET ERROR =         961660.28           BUDGET ERROR =         -54346.01

  ***WARNING, FLUX RATES OFF > 3%

  PERCENT DISCREPANCY =              1.09    PERCENT DISCREPANCY =             -3.03



1
 SUMMARY VOLUMETRIC BUDGET FOR GSFLOW 
 DATE: 11 25 1980              CUMULATIVE TIME STEP:      56
 MODFLOW STRESS PERIOD      1     CURRENT TIME STEP:      56     ITERATIONS:       3

 -----------------------------------------------------------------------------------

   CUMULATIVE VOLUMES               L**3   RATES FOR THIS TIME STEP           L**3/T
   ------------------                      ------------------------

                                     IN                                         IN
                                     --                                         --
        PRECIPITATION =        8.9177D+07          PRECIPITATION =                  
           STREAMFLOW =                               STREAMFLOW =                  
     GW BOUNDARY FLOW =                         GW BOUNDARY FLOW =                  


                                    OUT                                        OUT
                                    ---                                        ---
   EVAPOTRANSPIRATION =        8.3095D+07     EVAPOTRANSPIRATION =         272926.42
           STREAMFLOW =        1.4055D+07             STREAMFLOW =         437097.81
     GW BOUNDARY FLOW =                         GW BOUNDARY FLOW =                  

   INFLOWS - OUTFLOWS =       -7972267.51     INFLOWS - OUTFLOWS =        -710024.23
             --------                                   --------

 TOTAL STORAGE CHANGE =       -9017273.39         STORAGE CHANGE =        -730969.76
       --------------                             --------------
         LAND SURFACE =        3623166.05           LAND SURFACE =         -24347.90
            SOIL ZONE =        6057962.00              SOIL ZONE =        -183622.52
     UNSATURATED ZONE =       -2108563.08       UNSATURATED ZONE =         -17509.20
       SATURATED ZONE =       -8405951.23         SATURATED ZONE =        -182879.78
                LAKES =       -8183887.14                  LAKES =        -322610.34

 OVERALL BUDGET ERROR =        1045005.88           BUDGET ERROR =          20945.53


  PERCENT DISCREPANCY =              1.07    PERCENT DISCREPANCY =              2.91



1
 SUMMARY VOLUMETRIC BUDGET FOR GSFLOW 
 DATE: 12 02 1980              CUMULATIVE TIME STEP:      63
 MODFLOW STRESS PERIOD      1     CURRENT TIME STEP:      63     ITERATIONS:       4

 -----------------------------------------------------------------------------------

   CUMULATIVE VOLUMES               L**3   RATES FOR THIS TIME STEP           L**3/T
   ------------------                      ------------------------

                                     IN                                         IN
                                     --                                         --
        PRECIPITATION =        1.0846D+08          PRECIPITATION =        3198161.89
           STREAMFLOW =                               STREAMFLOW =                  
     GW BOUNDARY FLOW =                         GW BOUNDARY FLOW =                  


                                    OUT                                        OUT
                                    ---                                        ---
   EVAPOTRANSPIRATION =        9.0643D+07     EVAPOTRANSPIRATION =        1276583.94
           STREAMFLOW =        1.7318D+07             STREAMFLOW =         437214.94
     GW BOUNDARY FLOW =                         GW BOUNDARY FLOW =                  

   INFLOWS - OUTFLOWS =         502941.09     INFLOWS - OUTFLOWS =        1484363.02
             --------                                   --------

 TOTAL STORAGE CHANGE =       -1030661.06         STORAGE CHANGE =        1308288.29
       --------------                             --------------
         LAND SURFACE =        6315794.32           LAND SURFACE =       -1022195.92
            SOIL ZONE =        9942862.69              SOIL ZONE =        1753864.99
     UNSATURATED ZONE =       -1959840.30       UNSATURATED ZONE =          56588.64
       SATURATED ZONE =       -9139164.35         SATURATED ZONE =         -41997.67
                LAKES =       -6190313.42                  LAKES =         562028.25

 OVERALL BUDGET ERROR =        1533602.15           BUDGET ERROR =         176074.73

  ***WARNING, FLUX RATES OFF > 3%

  PERCENT DISCREPANCY =              1.41    PERCENT DISCREPANCY =              5.66



1
 SUMMARY VOLUMETRIC BUDGET FOR GSFLOW 
 DATE: 12 09 1980              CUMULATIVE TIME STEP:      70
 MODFLOW STRESS PERIOD      1     CURRENT TIME STEP:      70     ITERATIONS:       3

 -----------------------------------------------------------------------------------

   CUMULATIVE VOLUMES               L**3   RATES FOR THIS TIME STEP           L**3/T
   ------------------                      ------------------------

                                     IN                                         IN
                                     --                                         --
        PRECIPITATION =        1.7882D+08          PRECIPITATION =                  
           STREAMFLOW =                               STREAMFLOW =                  
     GW BOUNDARY FLOW =                         GW BOUNDARY FLOW =                  


                                    OUT                                        OUT
                                    ---                                        ---
   EVAPOTRANSPIRATION =        9.2974D+07     EVAPOTRANSPIRATION =         386680.29
           STREAMFLOW =        2.0282D+07             STREAMFLOW =         420980.56
     GW BOUNDARY FLOW =                         GW BOUNDARY FLOW =                  

   INFLOWS - OUTFLOWS =        6.5567D+07     INFLOWS - OUTFLOWS =        -807660.85
             --------                                   --------

 TOTAL STORAGE CHANGE =        6.3711D+07         STORAGE CHANGE =        -824919.49
       --------------                             --------------
         LAND SURFACE =        5.0167D+07           LAND SURFACE =        -246649.42
            SOIL ZONE =        1.3108D+07              SOIL ZONE =        -140631.14
     UNSATURATED ZONE =       -1523921.29       UNSATURATED ZONE =          40026.33
       SATURATED ZONE =       -1.0110D+07         SATURATED ZONE =        -207507.84
                LAKES =        1.2070D+07                  LAKES =        -270157.41

 OVERALL BUDGET ERROR =        1856081.18           BUDGET ERROR =          17258.64


  PERCENT DISCREPANCY =              1.04    PERCENT DISCREPANCY =              2.11



1
 SUMMARY VOLUMETRIC BUDGET FOR GSFLOW 
 DATE: 12 16 1980              CUMULATIVE TIME STEP:      77
 MODFLOW STRESS PERIOD      1     CURRENT TIME STEP:      77     ITERATIONS:       3

 -----------------------------------------------------------------------------------

   CUMULATIVE VOLUMES               L**3   RATES FOR THIS TIME STEP           L**3/T
   ------------------                      ------------------------

                                     IN                                         IN
                                     --                                         --
        PRECIPITATION =        1.7882D+08          PRECIPITATION =                  
           STREAMFLOW =                               STREAMFLOW =                  
     GW BOUNDARY FLOW =                         GW BOUNDARY FLOW =                  


                                    OUT                                        OUT
                                    ---                                        ---
   EVAPOTRANSPIRATION =        9.9447D+07     EVAPOTRANSPIRATION =        1457720.55
           STREAMFLOW =        2.3263D+07             STREAMFLOW =         430698.91
     GW BOUNDARY FLOW =                         GW BOUNDARY FLOW =                  

   INFLOWS - OUTFLOWS =        5.6114D+07     INFLOWS - OUTFLOWS =       -1888419.45
             --------                                   --------

 TOTAL STORAGE CHANGE =        5.4068D+07         STORAGE CHANGE =       -1926432.18
       --------------                             --------------
         LAND SURFACE =        4.5743D+07           LAND SURFACE =       -1259213.35
            SOIL ZONE =        1.2797D+07              SOIL ZONE =         237918.62
     UNSATURATED ZONE =       -1377864.16       UNSATURATED ZONE =          20119.63
       SATURATED ZONE =       -1.1441D+07         SATURATED ZONE =        -168638.89
                LAKES =        8346448.03                  LAKES =        -756618.19

 OVERALL BUDGET ERROR =        2046119.04           BUDGET ERROR =          38012.73


  PERCENT DISCREPANCY =              1.15    PERCENT DISCREPANCY =              1.99



1
 SUMMARY VOLUMETRIC BUDGET FOR GSFLOW 
 DATE: 12 23 1980              CUMULATIVE TIME STEP:      84
 MODFLOW STRESS PERIOD      1     CURRENT TIME STEP:      84     ITERATIONS:       3

 -----------------------------------------------------------------------------------

   CUMULATIVE VOLUMES               L**3   RATES FOR THIS TIME STEP           L**3/T
   ------------------                      ------------------------

                                     IN                                         IN
                                     --                                         --
        PRECIPITATION =        1.8522D+08          PRECIPITATION =        3198161.89
           STREAMFLOW =                               STREAMFLOW =                  
     GW BOUNDARY FLOW =                         GW BOUNDARY FLOW =                  


                                    OUT                                        OUT
                                    ---                                        ---
   EVAPOTRANSPIRATION =        1.0782D+08     EVAPOTRANSPIRATION =        1096960.74
           STREAMFLOW =        2.6316D+07             STREAMFLOW =         443565.56
     GW BOUNDARY FLOW =                         GW BOUNDARY FLOW =                  

   INFLOWS - OUTFLOWS =        5.1083D+07     INFLOWS - OUTFLOWS =        1657635.59
             --------                                   --------

 TOTAL STORAGE CHANGE =        4.8719D+07         STORAGE CHANGE =        1507586.76
       --------------                             --------------
         LAND SURFACE =        4.0220D+07           LAND SURFACE =        -367747.46
            SOIL ZONE =        1.5775D+07              SOIL ZONE =        1371239.61
     UNSATURATED ZONE =       -1092821.23       UNSATURATED ZONE =          94413.53
       SATURATED ZONE =       -1.2355D+07         SATURATED ZONE =         -80737.20
                LAKES =        6172000.38                  LAKES =         490418.28

 OVERALL BUDGET ERROR =        2364531.42           BUDGET ERROR =         150048.83

  ***WARNING, FLUX RATES OFF > 3%

  PERCENT DISCREPANCY =              1.28    PERCENT DISCREPANCY =              4.80



1
 SUMMARY VOLUMETRIC BUDGET FOR GSFLOW 
 DATE: 12 30 1980              CUMULATIVE TIME STEP:      91
 MODFLOW STRESS PERIOD      1     CURRENT TIME STEP:      91     ITERATIONS:       4

 -----------------------------------------------------------------------------------

   CUMULATIVE VOLUMES               L**3   RATES FOR THIS TIME STEP           L**3/T
   ------------------                      ------------------------

                                     IN                                         IN
                                     --                                         --
        PRECIPITATION =        1.8522D+08          PRECIPITATION =                  
           STREAMFLOW =                               STREAMFLOW =                  
     GW BOUNDARY FLOW =                         GW BOUNDARY FLOW =                  


                                    OUT                                        OUT
                                    ---                                        ---
   EVAPOTRANSPIRATION =        1.1805D+08     EVAPOTRANSPIRATION =        1240473.53
           STREAMFLOW =        2.9399D+07             STREAMFLOW =         445279.78
     GW BOUNDARY FLOW =                         GW BOUNDARY FLOW =                  

   INFLOWS - OUTFLOWS =        3.7767D+07     INFLOWS - OUTFLOWS =       -1685753.31
             --------                                   --------

 TOTAL STORAGE CHANGE =        3.5242D+07         STORAGE CHANGE =       -1698579.79
       --------------                             --------------
         LAND SURFACE =        3.3988D+07           LAND SURFACE =        -561673.17
            SOIL ZONE =        1.3820D+07              SOIL ZONE =        -403956.76
     UNSATURATED ZONE =        -774695.14       UNSATURATED ZONE =          33879.42
       SATURATED ZONE =       -1.3409D+07         SATURATED ZONE =        -163194.72
                LAKES =        1618006.41                  LAKES =        -603634.56

 OVERALL BUDGET ERROR =        2524937.16           BUDGET ERROR =          12826.48


  PERCENT DISCREPANCY =              1.37    PERCENT DISCREPANCY =              0.76



1
 SUMMARY VOLUMETRIC BUDGET FOR GSFLOW 
 DATE: 01 06 1981              CUMULATIVE TIME STEP:      98
 MODFLOW STRESS PERIOD      1     CURRENT TIME STEP:      98     ITERATIONS:      14

 -----------------------------------------------------------------------------------

   CUMULATIVE VOLUMES               L**3   RATES FOR THIS TIME STEP           L**3/T
   ------------------                      ------------------------

                                     IN                                         IN
                                     --                                         --
        PRECIPITATION =        2.0923D+08          PRECIPITATION =                  
           STREAMFLOW =                               STREAMFLOW =                  
     GW BOUNDARY FLOW =                         GW BOUNDARY FLOW =                  


                                    OUT                                        OUT
                                    ---                                        ---
   EVAPOTRANSPIRATION =        1.2563D+08     EVAPOTRANSPIRATION =        1141257.28
           STREAMFLOW =        3.2519D+07             STREAMFLOW =         445540.84
     GW BOUNDARY FLOW =                         GW BOUNDARY FLOW =                  

   INFLOWS - OUTFLOWS =        5.1081D+07     INFLOWS - OUTFLOWS =       -1586798.12
             --------                                   --------

 TOTAL STORAGE CHANGE =        4.8456D+07         STORAGE CHANGE =       -1620612.83
       --------------                             --------------
         LAND SURFACE =        3.9010D+07           LAND SURFACE =        -361339.84
            SOIL ZONE =        1.7030D+07              SOIL ZONE =        -582735.11
     UNSATURATED ZONE =        -189360.62       UNSATURATED ZONE =          81119.23
       SATURATED ZONE =       -1.3972D+07         SATURATED ZONE =        -219977.48
                LAKES =        6576830.72                  LAKES =        -537679.62

 OVERALL BUDGET ERROR =        2624888.91           BUDGET ERROR =          33814.71


  PERCENT DISCREPANCY =              1.26    PERCENT DISCREPANCY =              2.11



1
 SUMMARY VOLUMETRIC BUDGET FOR GSFLOW 
 DATE: 01 13 1981              CUMULATIVE TIME STEP:     105
 MODFLOW STRESS PERIOD      1     CURRENT TIME STEP:     105     ITERATIONS:       3

 -----------------------------------------------------------------------------------

   CUMULATIVE VOLUMES               L**3   RATES FOR THIS TIME STEP           L**3/T
   ------------------                      ------------------------

                                     IN                                         IN
                                     --                                         --
        PRECIPITATION =        2.1223D+08          PRECIPITATION =                  
           STREAMFLOW =                               STREAMFLOW =                  
     GW BOUNDARY FLOW =                         GW BOUNDARY FLOW =                  


                                    OUT                                        OUT
                                    ---                                        ---
   EVAPOTRANSPIRATION =        1.3396D+08     EVAPOTRANSPIRATION =        1403827.01
           STREAMFLOW =        3.5650D+07             STREAMFLOW =         457521.16
     GW BOUNDARY FLOW =                         GW BOUNDARY FLOW =                  

   INFLOWS - OUTFLOWS =        4.2614D+07     INFLOWS - OUTFLOWS =       -1861348.16
             --------                                   --------

 TOTAL STORAGE CHANGE =        3.9855D+07         STORAGE CHANGE =       -1870901.79
       --------------                             --------------
         LAND SURFACE =        3.7468D+07           LAND SURFACE =        -472689.35
            SOIL ZONE =        1.4431D+07              SOIL ZONE =        -520231.11
     UNSATURATED ZONE =          87776.98       UNSATURATED ZONE =          23773.97
       SATURATED ZONE =       -1.5264D+07         SATURATED ZONE =        -180156.48
                LAKES =        3132258.44                  LAKES =        -721598.81

 OVERALL BUDGET ERROR =        2759688.18           BUDGET ERROR =           9553.63


  PERCENT DISCREPANCY =              1.31    PERCENT DISCREPANCY =              0.51



1
 SUMMARY VOLUMETRIC BUDGET FOR GSFLOW 
 DATE: 01 20 1981              CUMULATIVE TIME STEP:     112
 MODFLOW STRESS PERIOD      1     CURRENT TIME STEP:     112     ITERATIONS:      12

 -----------------------------------------------------------------------------------

   CUMULATIVE VOLUMES               L**3   RATES FOR THIS TIME STEP           L**3/T
   ------------------                      ------------------------

                                     IN                                         IN
                                     --                                         --
        PRECIPITATION =        2.2423D+08          PRECIPITATION =        6001392.59
           STREAMFLOW =                               STREAMFLOW =                  
     GW BOUNDARY FLOW =                         GW BOUNDARY FLOW =                  


                                    OUT                                        OUT
                                    ---                                        ---
   EVAPOTRANSPIRATION =        1.4498D+08     EVAPOTRANSPIRATION =        1812032.78
           STREAMFLOW =        3.9241D+07             STREAMFLOW =         485521.72
     GW BOUNDARY FLOW =                         GW BOUNDARY FLOW =                  

   INFLOWS - OUTFLOWS =        4.0007D+07     INFLOWS - OUTFLOWS =        3703838.08
             --------                                   --------

 TOTAL STORAGE CHANGE =        3.7021D+07         STORAGE CHANGE =        3594692.86
       --------------                             --------------
         LAND SURFACE =        3.4618D+07           LAND SURFACE =         551864.81
            SOIL ZONE =        1.5991D+07              SOIL ZONE =        1363887.08
     UNSATURATED ZONE =         522402.20       UNSATURATED ZONE =         135777.58
       SATURATED ZONE =       -1.5904D+07         SATURATED ZONE =          85717.27
                LAKES =        1795051.16                  LAKES =        1457446.12

 OVERALL BUDGET ERROR =        2986113.13           BUDGET ERROR =         109145.22


  PERCENT DISCREPANCY =              1.34    PERCENT DISCREPANCY =              1.84



1
 SUMMARY VOLUMETRIC BUDGET FOR GSFLOW 
 DATE: 01 27 1981              CUMULATIVE TIME STEP:     119
 MODFLOW STRESS PERIOD      1     CURRENT TIME STEP:     119     ITERATIONS:      15

 -----------------------------------------------------------------------------------

   CUMULATIVE VOLUMES               L**3   RATES FOR THIS TIME STEP           L**3/T
   ------------------                      ------------------------

                                     IN                                         IN
                                     --                                         --
        PRECIPITATION =        3.3525D+08          PRECIPITATION =        6.0014D+07
           STREAMFLOW =                               STREAMFLOW =                  
     GW BOUNDARY FLOW =                         GW BOUNDARY FLOW =                  


                                    OUT                                        OUT
                                    ---                                        ---
   EVAPOTRANSPIRATION =        1.5407D+08     EVAPOTRANSPIRATION =         663088.08
           STREAMFLOW =        4.1752D+07             STREAMFLOW =         345811.31
     GW BOUNDARY FLOW =                         GW BOUNDARY FLOW =                  

   INFLOWS - OUTFLOWS =        1.3943D+08     INFLOWS - OUTFLOWS =        5.9005D+07
             --------                                   --------

 TOTAL STORAGE CHANGE =        1.3649D+08         STORAGE CHANGE =        5.8957D+07
       --------------                             --------------
         LAND SURFACE =        1.0380D+08           LAND SURFACE =        4.0704D+07
            SOIL ZONE =        1.8074D+07              SOIL ZONE =        1754110.15
     UNSATURATED ZONE =        1200970.26       UNSATURATED ZONE =         120580.89
       SATURATED ZONE =       -1.6459D+07         SATURATED ZONE =          67718.66
                LAKES =        2.9880D+07                  LAKES =        1.6310D+07

 OVERALL BUDGET ERROR =        2936738.33           BUDGET ERROR =          48181.01


  PERCENT DISCREPANCY =              0.88    PERCENT DISCREPANCY =              0.08



1
 SUMMARY VOLUMETRIC BUDGET FOR GSFLOW 
 DATE: 02 03 1981              CUMULATIVE TIME STEP:     126
 MODFLOW STRESS PERIOD      1     CURRENT TIME STEP:     126     ITERATIONS:      21

 -----------------------------------------------------------------------------------

   CUMULATIVE VOLUMES               L**3   RATES FOR THIS TIME STEP           L**3/T
   ------------------                      ------------------------

                                     IN                                         IN
                                     --                                         --
        PRECIPITATION =        4.0137D+08          PRECIPITATION =                  
           STREAMFLOW =                               STREAMFLOW =                  
     GW BOUNDARY FLOW =                         GW BOUNDARY FLOW =                  


                                    OUT                                        OUT
                                    ---                                        ---
   EVAPOTRANSPIRATION =        1.5769D+08     EVAPOTRANSPIRATION =         897795.48
           STREAMFLOW =        4.4232D+07             STREAMFLOW =         354891.78
     GW BOUNDARY FLOW =                         GW BOUNDARY FLOW =                  

   INFLOWS - OUTFLOWS =        1.9944D+08     INFLOWS - OUTFLOWS =       -1252687.26
             --------                                   --------

 TOTAL STORAGE CHANGE =        1.9674D+08         STORAGE CHANGE =       -1275623.57
       --------------                             --------------
         LAND SURFACE =        1.5000D+08           LAND SURFACE =        -514046.87
            SOIL ZONE =        1.7076D+07              SOIL ZONE =        -141397.07
     UNSATURATED ZONE =        1624172.42       UNSATURATED ZONE =          30850.94
       SATURATED ZONE =       -1.7716D+07         SATURATED ZONE =        -176436.12
                LAKES =        4.5760D+07                  LAKES =        -474594.44

 OVERALL BUDGET ERROR =        2703801.55           BUDGET ERROR =          22936.30


  PERCENT DISCREPANCY =              0.68    PERCENT DISCREPANCY =              1.81



1
 SUMMARY VOLUMETRIC BUDGET FOR GSFLOW 
 DATE: 02 10 1981              CUMULATIVE TIME STEP:     133
 MODFLOW STRESS PERIOD      1     CURRENT TIME STEP:     133     ITERATIONS:       3

 -----------------------------------------------------------------------------------

   CUMULATIVE VOLUMES               L**3   RATES FOR THIS TIME STEP           L**3/T
   ------------------                      ------------------------

                                     IN                                         IN
                                     --                                         --
        PRECIPITATION =        4.1375D+08          PRECIPITATION =        3095932.43
           STREAMFLOW =                               STREAMFLOW =                  
     GW BOUNDARY FLOW =                         GW BOUNDARY FLOW =                  


                                    OUT                                        OUT
                                    ---                                        ---
   EVAPOTRANSPIRATION =        1.6309D+08     EVAPOTRANSPIRATION =         577934.05
           STREAMFLOW =        4.6626D+07             STREAMFLOW =         340304.91
     GW BOUNDARY FLOW =                         GW BOUNDARY FLOW =                  

   INFLOWS - OUTFLOWS =        2.0403D+08     INFLOWS - OUTFLOWS =        2177693.47
             --------                                   --------

 TOTAL STORAGE CHANGE =        2.0120D+08         STORAGE CHANGE =        2150271.38
       --------------                             --------------
         LAND SURFACE =        1.5542D+08           LAND SURFACE =        1647974.67
            SOIL ZONE =        1.6988D+07              SOIL ZONE =         193609.30
     UNSATURATED ZONE =        1701456.57       UNSATURATED ZONE =           8197.78
       SATURATED ZONE =       -1.8825D+07         SATURATED ZONE =        -150636.16
                LAKES =        4.5917D+07                  LAKES =         451125.78

 OVERALL BUDGET ERROR =        2836930.92           BUDGET ERROR =          27422.09


  PERCENT DISCREPANCY =              0.69    PERCENT DISCREPANCY =              0.89



1
 SUMMARY VOLUMETRIC BUDGET FOR GSFLOW 
 DATE: 02 17 1981              CUMULATIVE TIME STEP:     140
 MODFLOW STRESS PERIOD      1     CURRENT TIME STEP:     140     ITERATIONS:      32

 -----------------------------------------------------------------------------------

   CUMULATIVE VOLUMES               L**3   RATES FOR THIS TIME STEP           L**3/T
   ------------------                      ------------------------

                                     IN                                         IN
                                     --                                         --
        PRECIPITATION =        4.6328D+08          PRECIPITATION =                  
           STREAMFLOW =                               STREAMFLOW =                  
     GW BOUNDARY FLOW =                         GW BOUNDARY FLOW =                  


                                    OUT                                        OUT
                                    ---                                        ---
   EVAPOTRANSPIRATION =        1.7438D+08     EVAPOTRANSPIRATION =        2612597.81
           STREAMFLOW =        4.8976D+07             STREAMFLOW =         285389.16
     GW BOUNDARY FLOW =                         GW BOUNDARY FLOW =                  

   INFLOWS - OUTFLOWS =        2.3992D+08     INFLOWS - OUTFLOWS =       -2897986.97
             --------                                   --------

 TOTAL STORAGE CHANGE =        2.3646D+08         STORAGE CHANGE =       -2958277.32
       --------------                             --------------
         LAND SURFACE =        1.6983D+08           LAND SURFACE =       -2316327.27
            SOIL ZONE =        2.3846D+07              SOIL ZONE =         -56565.33
     UNSATURATED ZONE =        2735234.58       UNSATURATED ZONE =         187341.04
       SATURATED ZONE =       -1.8915D+07         SATURATED ZONE =        -126951.45
                LAKES =        5.8958D+07                  LAKES =        -645774.31

 OVERALL BUDGET ERROR =        3464324.72           BUDGET ERROR =          60290.35


  PERCENT DISCREPANCY =              0.75    PERCENT DISCREPANCY =              2.06



1
 SUMMARY VOLUMETRIC BUDGET FOR GSFLOW 
 DATE: 02 24 1981              CUMULATIVE TIME STEP:     147
 MODFLOW STRESS PERIOD      1     CURRENT TIME STEP:     147     ITERATIONS:      14

 -----------------------------------------------------------------------------------

   CUMULATIVE VOLUMES               L**3   RATES FOR THIS TIME STEP           L**3/T
   ------------------                      ------------------------

                                     IN                                         IN
                                     --                                         --
        PRECIPITATION =        4.8805D+08          PRECIPITATION =        1.8576D+07
           STREAMFLOW =                               STREAMFLOW =                  
     GW BOUNDARY FLOW =                         GW BOUNDARY FLOW =                  


                                    OUT                                        OUT
                                    ---                                        ---
   EVAPOTRANSPIRATION =        1.8775D+08     EVAPOTRANSPIRATION =        1355175.58
           STREAMFLOW =        5.0060D+07             STREAMFLOW =         143123.89
     GW BOUNDARY FLOW =                         GW BOUNDARY FLOW =                  

   INFLOWS - OUTFLOWS =        2.5024D+08     INFLOWS - OUTFLOWS =        1.7077D+07
             --------                                   --------

 TOTAL STORAGE CHANGE =        2.4634D+08         STORAGE CHANGE =        1.7043D+07
       --------------                             --------------
         LAND SURFACE =        1.6962D+08           LAND SURFACE =        1.0824D+07
            SOIL ZONE =        2.6076D+07              SOIL ZONE =         470086.65
     UNSATURATED ZONE =        1557149.42       UNSATURATED ZONE =         343439.11
       SATURATED ZONE =       -1.7092D+07         SATURATED ZONE =          50101.81
                LAKES =        6.6183D+07                  LAKES =        5355411.00

 OVERALL BUDGET ERROR =        3897746.41           BUDGET ERROR =          34506.48


  PERCENT DISCREPANCY =              0.80    PERCENT DISCREPANCY =              0.19



1
 SUMMARY VOLUMETRIC BUDGET FOR GSFLOW 
 DATE: 03 03 1981              CUMULATIVE TIME STEP:     154
 MODFLOW STRESS PERIOD      1     CURRENT TIME STEP:     154     ITERATIONS:      16

 -----------------------------------------------------------------------------------

   CUMULATIVE VOLUMES               L**3   RATES FOR THIS TIME STEP           L**3/T
   ------------------                      ------------------------

                                     IN                                         IN
                                     --                                         --
        PRECIPITATION =        5.0056D+08          PRECIPITATION =                  
           STREAMFLOW =                               STREAMFLOW =                  
     GW BOUNDARY FLOW =                         GW BOUNDARY FLOW =                  


                                    OUT                                        OUT
                                    ---                                        ---
   EVAPOTRANSPIRATION =        1.9627D+08     EVAPOTRANSPIRATION =        2161020.30
           STREAMFLOW =        5.1106D+07             STREAMFLOW =         161574.77
     GW BOUNDARY FLOW =                         GW BOUNDARY FLOW =                  

   INFLOWS - OUTFLOWS =        2.5318D+08     INFLOWS - OUTFLOWS =       -2322595.07
             --------                                   --------

 TOTAL STORAGE CHANGE =        2.4909D+08         STORAGE CHANGE =       -2345740.39
       --------------                             --------------
         LAND SURFACE =        1.7232D+08           LAND SURFACE =       -1112916.66
            SOIL ZONE =        2.4192D+07              SOIL ZONE =        -375942.81
     UNSATURATED ZONE =        2522797.34       UNSATURATED ZONE =          65932.24
       SATURATED ZONE =       -1.8333D+07         SATURATED ZONE =        -177932.53
                LAKES =        6.8393D+07                  LAKES =        -744880.62

 OVERALL BUDGET ERROR =        4089643.19           BUDGET ERROR =          23145.32


  PERCENT DISCREPANCY =              0.82    PERCENT DISCREPANCY =              0.99



1
 SUMMARY VOLUMETRIC BUDGET FOR GSFLOW 
 DATE: 03 10 1981              CUMULATIVE TIME STEP:     161
 MODFLOW STRESS PERIOD      1     CURRENT TIME STEP:     161     ITERATIONS:      42

 -----------------------------------------------------------------------------------

   CUMULATIVE VOLUMES               L**3   RATES FOR THIS TIME STEP           L**3/T
   ------------------                      ------------------------

                                     IN                                         IN
                                     --                                         --
        PRECIPITATION =        5.0378D+08          PRECIPITATION =        3221591.34
           STREAMFLOW =                               STREAMFLOW =                  
     GW BOUNDARY FLOW =                         GW BOUNDARY FLOW =                  


                                    OUT                                        OUT
                                    ---                                        ---
   EVAPOTRANSPIRATION =        2.1334D+08     EVAPOTRANSPIRATION =        1910800.74
           STREAMFLOW =        5.2250D+07             STREAMFLOW =         163871.41
     GW BOUNDARY FLOW =                         GW BOUNDARY FLOW =                  

   INFLOWS - OUTFLOWS =        2.3819D+08     INFLOWS - OUTFLOWS =        1146919.19
             --------                                   --------

 TOTAL STORAGE CHANGE =        2.3386D+08         STORAGE CHANGE =        1112048.32
       --------------                             --------------
         LAND SURFACE =        1.5960D+08           LAND SURFACE =       -1847362.99
            SOIL ZONE =        2.4731D+07              SOIL ZONE =        1270432.46
     UNSATURATED ZONE =        2987148.15       UNSATURATED ZONE =         158886.03
       SATURATED ZONE =       -1.8855D+07         SATURATED ZONE =         136483.56
                LAKES =        6.5400D+07                  LAKES =        1393609.25

 OVERALL BUDGET ERROR =        4324627.54           BUDGET ERROR =          34870.87


  PERCENT DISCREPANCY =              0.86    PERCENT DISCREPANCY =              1.09



1
 SUMMARY VOLUMETRIC BUDGET FOR GSFLOW 
 DATE: 03 17 1981              CUMULATIVE TIME STEP:     168
 MODFLOW STRESS PERIOD      1     CURRENT TIME STEP:     168     ITERATIONS:      33

 -----------------------------------------------------------------------------------

   CUMULATIVE VOLUMES               L**3   RATES FOR THIS TIME STEP           L**3/T
   ------------------                      ------------------------

                                     IN                                         IN
                                     --                                         --
        PRECIPITATION =        5.1345D+08          PRECIPITATION =        3221591.34
           STREAMFLOW =                               STREAMFLOW =                  
     GW BOUNDARY FLOW =                         GW BOUNDARY FLOW =                  


                                    OUT                                        OUT
                                    ---                                        ---
   EVAPOTRANSPIRATION =        2.2791D+08     EVAPOTRANSPIRATION =        1041772.03
           STREAMFLOW =        5.3446D+07             STREAMFLOW =         174561.34
     GW BOUNDARY FLOW =                         GW BOUNDARY FLOW =                  

   INFLOWS - OUTFLOWS =        2.3209D+08     INFLOWS - OUTFLOWS =        2005257.96
             --------                                   --------

 TOTAL STORAGE CHANGE =        2.2762D+08         STORAGE CHANGE =        1984678.65
       --------------                             --------------
         LAND SURFACE =        1.5550D+08           LAND SURFACE =        1505003.64
            SOIL ZONE =        2.3801D+07              SOIL ZONE =          25123.48
     UNSATURATED ZONE =        3580587.02       UNSATURATED ZONE =        -103241.71
       SATURATED ZONE =       -1.9574D+07         SATURATED ZONE =           2109.36
                LAKES =        6.4316D+07                  LAKES =         555683.88

 OVERALL BUDGET ERROR =        4470815.91           BUDGET ERROR =          20579.32


  PERCENT DISCREPANCY =              0.87    PERCENT DISCREPANCY =              0.64



1
 SUMMARY VOLUMETRIC BUDGET FOR GSFLOW 
 DATE: 03 24 1981              CUMULATIVE TIME STEP:     175
 MODFLOW STRESS PERIOD      1     CURRENT TIME STEP:     175     ITERATIONS:      21

 -----------------------------------------------------------------------------------

   CUMULATIVE VOLUMES               L**3   RATES FOR THIS TIME STEP           L**3/T
   ------------------                      ------------------------

                                     IN                                         IN
                                     --                                         --
        PRECIPITATION =        5.7144D+08          PRECIPITATION =        6443182.67
           STREAMFLOW =                               STREAMFLOW =                  
     GW BOUNDARY FLOW =                         GW BOUNDARY FLOW =                  


                                    OUT                                        OUT
                                    ---                                        ---
   EVAPOTRANSPIRATION =        2.4181D+08     EVAPOTRANSPIRATION =        1710674.03
           STREAMFLOW =        5.4582D+07             STREAMFLOW =         164598.86
     GW BOUNDARY FLOW =                         GW BOUNDARY FLOW =                  

   INFLOWS - OUTFLOWS =        2.7504D+08     INFLOWS - OUTFLOWS =        4567909.78
             --------                                   --------

 TOTAL STORAGE CHANGE =        2.7029D+08         STORAGE CHANGE =        4527285.59
       --------------                             --------------
         LAND SURFACE =        1.8290D+08           LAND SURFACE =        1419527.67
            SOIL ZONE =        2.6094D+07              SOIL ZONE =         785989.09
     UNSATURATED ZONE =        4502327.74       UNSATURATED ZONE =         179134.16
       SATURATED ZONE =       -2.0014D+07         SATURATED ZONE =          90166.92
                LAKES =        7.6810D+07                  LAKES =        2052467.75

 OVERALL BUDGET ERROR =        4750892.83           BUDGET ERROR =          40624.19


  PERCENT DISCREPANCY =              0.83    PERCENT DISCREPANCY =              0.63



1
 SUMMARY VOLUMETRIC BUDGET FOR GSFLOW 
 DATE: 03 31 1981              CUMULATIVE TIME STEP:     182
 MODFLOW STRESS PERIOD      1     CURRENT TIME STEP:     182     ITERATIONS:      28

 -----------------------------------------------------------------------------------

   CUMULATIVE VOLUMES               L**3   RATES FOR THIS TIME STEP           L**3/T
   ------------------                      ------------------------

                                     IN                                         IN
                                     --                                         --
        PRECIPITATION =        6.3587D+08          PRECIPITATION =        6443182.67
           STREAMFLOW =                               STREAMFLOW =                  
     GW BOUNDARY FLOW =                         GW BOUNDARY FLOW =                  


                                    OUT                                        OUT
                                    ---                                        ---
   EVAPOTRANSPIRATION =        2.5631D+08     EVAPOTRANSPIRATION =        1135389.44
           STREAMFLOW =        5.5754D+07             STREAMFLOW =         154064.86
     GW BOUNDARY FLOW =                         GW BOUNDARY FLOW =                  

   INFLOWS - OUTFLOWS =        3.2380D+08     INFLOWS - OUTFLOWS =        5153728.37
             --------                                   --------

 TOTAL STORAGE CHANGE =        3.1905D+08         STORAGE CHANGE =        5116175.10
       --------------                             --------------
         LAND SURFACE =        2.0791D+08           LAND SURFACE =        2593089.95
            SOIL ZONE =        2.7738D+07              SOIL ZONE =         490973.30
     UNSATURATED ZONE =        1375451.07       UNSATURATED ZONE =         179397.86
       SATURATED ZONE =       -1.6479D+07         SATURATED ZONE =         -32403.14
                LAKES =        9.8506D+07                  LAKES =        1885117.12

 OVERALL BUDGET ERROR =        4747288.18           BUDGET ERROR =          37553.27


  PERCENT DISCREPANCY =              0.75    PERCENT DISCREPANCY =              0.58



1
 SUMMARY VOLUMETRIC BUDGET FOR GSFLOW 
 DATE: 04 07 1981              CUMULATIVE TIME STEP:     189
 MODFLOW STRESS PERIOD      1     CURRENT TIME STEP:     189     ITERATIONS:      49

 -----------------------------------------------------------------------------------

   CUMULATIVE VOLUMES               L**3   RATES FOR THIS TIME STEP           L**3/T
   ------------------                      ------------------------

                                     IN                                         IN
                                     --                                         --
        PRECIPITATION =        6.5328D+08          PRECIPITATION =                  
           STREAMFLOW =                               STREAMFLOW =                  
     GW BOUNDARY FLOW =                         GW BOUNDARY FLOW =                  


                                    OUT                                        OUT
                                    ---                                        ---
   EVAPOTRANSPIRATION =        2.7945D+08     EVAPOTRANSPIRATION =        4247224.71
           STREAMFLOW =        5.6884D+07             STREAMFLOW =         203682.36
     GW BOUNDARY FLOW =                         GW BOUNDARY FLOW =                  

   INFLOWS - OUTFLOWS =        3.1695D+08     INFLOWS - OUTFLOWS =       -4450907.07
             --------                                   --------

 TOTAL STORAGE CHANGE =        3.1194D+08         STORAGE CHANGE =       -4489443.22
       --------------                             --------------
         LAND SURFACE =        1.8629D+08           LAND SURFACE =       -6808840.32
            SOIL ZONE =        2.8275D+07              SOIL ZONE =         -12500.29
     UNSATURATED ZONE =        3307515.47       UNSATURATED ZONE =         333554.98
       SATURATED ZONE =       -1.5182D+07         SATURATED ZONE =         299968.53
                LAKES =        1.0924D+08                  LAKES =        1698373.88

 OVERALL BUDGET ERROR =        5015878.73           BUDGET ERROR =          38536.15


  PERCENT DISCREPANCY =              0.77    PERCENT DISCREPANCY =              0.86



1
 SUMMARY VOLUMETRIC BUDGET FOR GSFLOW 
 DATE: 04 14 1981              CUMULATIVE TIME STEP:     196
 MODFLOW STRESS PERIOD      1     CURRENT TIME STEP:     196     ITERATIONS:      38

 -----------------------------------------------------------------------------------

   CUMULATIVE VOLUMES               L**3   RATES FOR THIS TIME STEP           L**3/T
   ------------------                      ------------------------

                                     IN                                         IN
                                     --                                         --
        PRECIPITATION =        6.5328D+08          PRECIPITATION =                  
           STREAMFLOW =                               STREAMFLOW =                  
     GW BOUNDARY FLOW =                         GW BOUNDARY FLOW =                  


                                    OUT                                        OUT
                                    ---                                        ---
   EVAPOTRANSPIRATION =        3.0927D+08     EVAPOTRANSPIRATION =        5170326.98
           STREAMFLOW =        5.8130D+07             STREAMFLOW =         172000.17
     GW BOUNDARY FLOW =                         GW BOUNDARY FLOW =                  

   INFLOWS - OUTFLOWS =        2.8588D+08     INFLOWS - OUTFLOWS =       -5342327.15
             --------                                   --------

 TOTAL STORAGE CHANGE =        2.8070D+08         STORAGE CHANGE =       -5351145.77
       --------------                             --------------
         LAND SURFACE =        1.4105D+08           LAND SURFACE =       -7353350.11
            SOIL ZONE =        2.3823D+07              SOIL ZONE =        -905416.66
     UNSATURATED ZONE =        5308443.45       UNSATURATED ZONE =         246086.56
       SATURATED ZONE =       -1.3528D+07         SATURATED ZONE =         270633.94
                LAKES =        1.2405D+08                  LAKES =        2390900.50

 OVERALL BUDGET ERROR =        5180404.25           BUDGET ERROR =           8818.62


  PERCENT DISCREPANCY =              0.80    PERCENT DISCREPANCY =              0.16



1
 SUMMARY VOLUMETRIC BUDGET FOR GSFLOW 
 DATE: 04 21 1981              CUMULATIVE TIME STEP:     203
 MODFLOW STRESS PERIOD      1     CURRENT TIME STEP:     203     ITERATIONS:      52

 -----------------------------------------------------------------------------------

   CUMULATIVE VOLUMES               L**3   RATES FOR THIS TIME STEP           L**3/T
   ------------------                      ------------------------

                                     IN                                         IN
                                     --                                         --
        PRECIPITATION =        6.7418D+08          PRECIPITATION =                  
           STREAMFLOW =                               STREAMFLOW =                  
     GW BOUNDARY FLOW =                         GW BOUNDARY FLOW =                  


                                    OUT                                        OUT
                                    ---                                        ---
   EVAPOTRANSPIRATION =        3.3937D+08     EVAPOTRANSPIRATION =        5676647.95
           STREAMFLOW =        5.9345D+07             STREAMFLOW =         169579.17
     GW BOUNDARY FLOW =                         GW BOUNDARY FLOW =                  

   INFLOWS - OUTFLOWS =        2.7546D+08     INFLOWS - OUTFLOWS =       -5846227.13
             --------                                   --------

 TOTAL STORAGE CHANGE =        2.7031D+08         STORAGE CHANGE =       -5853589.89
       --------------                             --------------
         LAND SURFACE =        1.1854D+08           LAND SURFACE =       -3228214.46
            SOIL ZONE =        2.1950D+07              SOIL ZONE =       -2078525.52
     UNSATURATED ZONE =        6411250.75       UNSATURATED ZONE =          94386.18
       SATURATED ZONE =       -1.3332D+07         SATURATED ZONE =         -40522.97
                LAKES =        1.3674D+08                  LAKES =        -600713.12

 OVERALL BUDGET ERROR =        5150702.34           BUDGET ERROR =           7362.77


  PERCENT DISCREPANCY =              0.77    PERCENT DISCREPANCY =              0.13



1
 SUMMARY VOLUMETRIC BUDGET FOR GSFLOW 
 DATE: 04 28 1981              CUMULATIVE TIME STEP:     210
 MODFLOW STRESS PERIOD      1     CURRENT TIME STEP:     210     ITERATIONS:      47

 -----------------------------------------------------------------------------------

   CUMULATIVE VOLUMES               L**3   RATES FOR THIS TIME STEP           L**3/T
   ------------------                      ------------------------

                                     IN                                         IN
                                     --                                         --
        PRECIPITATION =        6.8114D+08          PRECIPITATION =                  
           STREAMFLOW =                               STREAMFLOW =                  
     GW BOUNDARY FLOW =                         GW BOUNDARY FLOW =                  


                                    OUT                                        OUT
                                    ---                                        ---
   EVAPOTRANSPIRATION =        3.8077D+08     EVAPOTRANSPIRATION =        5632485.88
           STREAMFLOW =        6.0557D+07             STREAMFLOW =         169029.37
     GW BOUNDARY FLOW =                         GW BOUNDARY FLOW =                  

   INFLOWS - OUTFLOWS =        2.3982D+08     INFLOWS - OUTFLOWS =       -5801515.25
             --------                                   --------

 TOTAL STORAGE CHANGE =        2.3462D+08         STORAGE CHANGE =       -5801450.85
       --------------                             --------------
         LAND SURFACE =        9.3061D+07           LAND SURFACE =       -4036132.13
            SOIL ZONE =        1.1922D+07              SOIL ZONE =       -1674250.34
     UNSATURATED ZONE =        6487456.32       UNSATURATED ZONE =         -36437.91
       SATURATED ZONE =       -1.3189D+07         SATURATED ZONE =         113730.95
                LAKES =        1.3634D+08                  LAKES =        -168361.42

 OVERALL BUDGET ERROR =        5197029.03           BUDGET ERROR =            -64.41


  PERCENT DISCREPANCY =              0.77    PERCENT DISCREPANCY =             -0.00



1
 SUMMARY VOLUMETRIC BUDGET FOR GSFLOW 
 DATE: 05 05 1981              CUMULATIVE TIME STEP:     217
 MODFLOW STRESS PERIOD      1     CURRENT TIME STEP:     217     ITERATIONS:      69

 -----------------------------------------------------------------------------------

   CUMULATIVE VOLUMES               L**3   RATES FOR THIS TIME STEP           L**3/T
   ------------------                      ------------------------

                                     IN                                         IN
                                     --                                         --
        PRECIPITATION =        6.8811D+08          PRECIPITATION =                  
           STREAMFLOW =                               STREAMFLOW =                  
     GW BOUNDARY FLOW =                         GW BOUNDARY FLOW =                  


                                    OUT                                        OUT
                                    ---                                        ---
   EVAPOTRANSPIRATION =        4.1880D+08     EVAPOTRANSPIRATION =        3777417.62
           STREAMFLOW =        6.1775D+07             STREAMFLOW =         173796.00
     GW BOUNDARY FLOW =                         GW BOUNDARY FLOW =                  

   INFLOWS - OUTFLOWS =        2.0754D+08     INFLOWS - OUTFLOWS =       -3951213.62
             --------                                   --------

 TOTAL STORAGE CHANGE =        2.0230D+08         STORAGE CHANGE =       -3959037.19
       --------------                             --------------
         LAND SURFACE =        6.7797D+07           LAND SURFACE =       -2954583.55
            SOIL ZONE =        5253933.69              SOIL ZONE =        -921068.68
     UNSATURATED ZONE =        5121735.21       UNSATURATED ZONE =         -70664.18
       SATURATED ZONE =       -1.2256D+07         SATURATED ZONE =         -12544.19
                LAKES =        1.3638D+08                  LAKES =           -176.59

 OVERALL BUDGET ERROR =        5241405.44           BUDGET ERROR =           7823.57


  PERCENT DISCREPANCY =              0.76    PERCENT DISCREPANCY =              0.20



1
 SUMMARY VOLUMETRIC BUDGET FOR GSFLOW 
 DATE: 05 12 1981              CUMULATIVE TIME STEP:     224
 MODFLOW STRESS PERIOD      1     CURRENT TIME STEP:     224     ITERATIONS:      63

 -----------------------------------------------------------------------------------

   CUMULATIVE VOLUMES               L**3   RATES FOR THIS TIME STEP           L**3/T
   ------------------                      ------------------------

                                     IN                                         IN
                                     --                                         --
        PRECIPITATION =        6.8811D+08          PRECIPITATION =                  
           STREAMFLOW =                               STREAMFLOW =                  
     GW BOUNDARY FLOW =                         GW BOUNDARY FLOW =                  


                                    OUT                                        OUT
                                    ---                                        ---
   EVAPOTRANSPIRATION =        4.4716D+08     EVAPOTRANSPIRATION =        4486316.11
           STREAMFLOW =        6.2972D+07             STREAMFLOW =         168853.17
     GW BOUNDARY FLOW =                         GW BOUNDARY FLOW =                  

   INFLOWS - OUTFLOWS =        1.7798D+08     INFLOWS - OUTFLOWS =       -4655169.29
             --------                                   --------

 TOTAL STORAGE CHANGE =        1.7272D+08         STORAGE CHANGE =       -4660273.56
       --------------                             --------------
         LAND SURFACE =        4.4652D+07           LAND SURFACE =       -3401592.04
            SOIL ZONE =       -1386501.40              SOIL ZONE =        -952924.24
     UNSATURATED ZONE =        2951202.85       UNSATURATED ZONE =        -839135.39
       SATURATED ZONE =       -1.0886D+07         SATURATED ZONE =         539931.38
                LAKES =        1.3739D+08                  LAKES =          -6553.27

 OVERALL BUDGET ERROR =        5258768.68           BUDGET ERROR =           5104.28


  PERCENT DISCREPANCY =              0.77    PERCENT DISCREPANCY =              0.11



1
 SUMMARY VOLUMETRIC BUDGET FOR GSFLOW 
 DATE: 05 19 1981              CUMULATIVE TIME STEP:     231
 MODFLOW STRESS PERIOD      1     CURRENT TIME STEP:     231     ITERATIONS:      43

 -----------------------------------------------------------------------------------

   CUMULATIVE VOLUMES               L**3   RATES FOR THIS TIME STEP           L**3/T
   ------------------                      ------------------------

                                     IN                                         IN
                                     --                                         --
        PRECIPITATION =        7.4671D+08          PRECIPITATION =        3447112.78
           STREAMFLOW =                               STREAMFLOW =                  
     GW BOUNDARY FLOW =                         GW BOUNDARY FLOW =                  


                                    OUT                                        OUT
                                    ---                                        ---
   EVAPOTRANSPIRATION =        4.6525D+08     EVAPOTRANSPIRATION =        1758756.00
           STREAMFLOW =        6.4162D+07             STREAMFLOW =         172527.06
     GW BOUNDARY FLOW =                         GW BOUNDARY FLOW =                  

   INFLOWS - OUTFLOWS =        2.1730D+08     INFLOWS - OUTFLOWS =        1515829.72
             --------                                   --------

 TOTAL STORAGE CHANGE =        2.1215D+08         STORAGE CHANGE =        1518645.98
       --------------                             --------------
         LAND SURFACE =        4.8302D+07           LAND SURFACE =       -3469349.26
            SOIL ZONE =        1.0091D+07              SOIL ZONE =        2136627.39
     UNSATURATED ZONE =        2770160.37       UNSATURATED ZONE =         -16836.30
       SATURATED ZONE =       -1.0422D+07         SATURATED ZONE =          69980.91
                LAKES =        1.6141D+08                  LAKES =        2798223.25

 OVERALL BUDGET ERROR =        5152588.20           BUDGET ERROR =          -2816.26


  PERCENT DISCREPANCY =              0.69    PERCENT DISCREPANCY =             -0.08



1
 SUMMARY VOLUMETRIC BUDGET FOR GSFLOW 
 DATE: 05 26 1981              CUMULATIVE TIME STEP:     238
 MODFLOW STRESS PERIOD      1     CURRENT TIME STEP:     238     ITERATIONS:      16

 -----------------------------------------------------------------------------------

   CUMULATIVE VOLUMES               L**3   RATES FOR THIS TIME STEP           L**3/T
   ------------------                      ------------------------

                                     IN                                         IN
                                     --                                         --
        PRECIPITATION =        7.7429D+08          PRECIPITATION =        1.7236D+07
           STREAMFLOW =                               STREAMFLOW =                  
     GW BOUNDARY FLOW =                         GW BOUNDARY FLOW =                  


                                    OUT                                        OUT
                                    ---                                        ---
   EVAPOTRANSPIRATION =        4.9677D+08     EVAPOTRANSPIRATION =        2648374.42
           STREAMFLOW =        6.5363D+07             STREAMFLOW =         180466.05
     GW BOUNDARY FLOW =                         GW BOUNDARY FLOW =                  

   INFLOWS - OUTFLOWS =        2.1215D+08     INFLOWS - OUTFLOWS =        1.4407D+07
             --------                                   --------

 TOTAL STORAGE CHANGE =        2.0651D+08         STORAGE CHANGE =        1.4238D+07
       --------------                             --------------
         LAND SURFACE =        3.1890D+07           LAND SURFACE =        -275022.89
            SOIL ZONE =        8659259.79              SOIL ZONE =        4715693.43
     UNSATURATED ZONE =        2604858.46       UNSATURATED ZONE =          12358.66
       SATURATED ZONE =       -9974373.05         SATURATED ZONE =         556523.25
                LAKES =        1.7333D+08                  LAKES =        9228753.00

 OVERALL BUDGET ERROR =        5640250.42           BUDGET ERROR =         168417.74


  PERCENT DISCREPANCY =              0.73    PERCENT DISCREPANCY =              0.98



1
 SUMMARY VOLUMETRIC BUDGET FOR GSFLOW 
 DATE: 06 02 1981              CUMULATIVE TIME STEP:     245
 MODFLOW STRESS PERIOD      1     CURRENT TIME STEP:     245     ITERATIONS:      65

 -----------------------------------------------------------------------------------

   CUMULATIVE VOLUMES               L**3   RATES FOR THIS TIME STEP           L**3/T
   ------------------                      ------------------------

                                     IN                                         IN
                                     --                                         --
        PRECIPITATION =        7.7429D+08          PRECIPITATION =                  
           STREAMFLOW =                               STREAMFLOW =                  
     GW BOUNDARY FLOW =                         GW BOUNDARY FLOW =                  


                                    OUT                                        OUT
                                    ---                                        ---
   EVAPOTRANSPIRATION =        5.3770D+08     EVAPOTRANSPIRATION =        5801385.86
           STREAMFLOW =        6.6583D+07             STREAMFLOW =         178725.95
     GW BOUNDARY FLOW =                         GW BOUNDARY FLOW =                  

   INFLOWS - OUTFLOWS =        1.7001D+08     INFLOWS - OUTFLOWS =       -5980111.82
             --------                                   --------

 TOTAL STORAGE CHANGE =        1.6435D+08         STORAGE CHANGE =       -5984040.76
       --------------                             --------------
         LAND SURFACE =        1.9162D+07           LAND SURFACE =       -1524432.49
            SOIL ZONE =       -7614735.23              SOIL ZONE =       -1966136.76
     UNSATURATED ZONE =       -1990260.60       UNSATURATED ZONE =        -125477.96
       SATURATED ZONE =       -8396823.66         SATURATED ZONE =        -221676.55
                LAKES =        1.6319D+08                  LAKES =       -2146317.00

 OVERALL BUDGET ERROR =        5660745.04           BUDGET ERROR =           3928.94


  PERCENT DISCREPANCY =              0.73    PERCENT DISCREPANCY =              0.07



1
 SUMMARY VOLUMETRIC BUDGET FOR GSFLOW 
 DATE: 06 09 1981              CUMULATIVE TIME STEP:     252
 MODFLOW STRESS PERIOD      1     CURRENT TIME STEP:     252     ITERATIONS:      49

 -----------------------------------------------------------------------------------

   CUMULATIVE VOLUMES               L**3   RATES FOR THIS TIME STEP           L**3/T
   ------------------                      ------------------------

                                     IN                                         IN
                                     --                                         --
        PRECIPITATION =        7.7752D+08          PRECIPITATION =                  
           STREAMFLOW =                               STREAMFLOW =                  
     GW BOUNDARY FLOW =                         GW BOUNDARY FLOW =                  


                                    OUT                                        OUT
                                    ---                                        ---
   EVAPOTRANSPIRATION =        5.7451D+08     EVAPOTRANSPIRATION =        5412592.01
           STREAMFLOW =        6.7827D+07             STREAMFLOW =         203133.83
     GW BOUNDARY FLOW =                         GW BOUNDARY FLOW =                  

   INFLOWS - OUTFLOWS =        1.3518D+08     INFLOWS - OUTFLOWS =       -5615725.84
             --------                                   --------

 TOTAL STORAGE CHANGE =        1.2948D+08         STORAGE CHANGE =       -5622261.34
       --------------                             --------------
         LAND SURFACE =        9796542.36           LAND SURFACE =        -964196.41
            SOIL ZONE =       -1.8503D+07              SOIL ZONE =       -1819596.86
     UNSATURATED ZONE =       -2819123.35       UNSATURATED ZONE =        -126005.81
       SATURATED ZONE =       -9630226.68         SATURATED ZONE =        -221241.02
                LAKES =        1.5063D+08                  LAKES =       -2491221.25

 OVERALL BUDGET ERROR =        5701814.63           BUDGET ERROR =           6535.50


  PERCENT DISCREPANCY =              0.74    PERCENT DISCREPANCY =              0.12



1
 SUMMARY VOLUMETRIC BUDGET FOR GSFLOW 
 DATE: 06 16 1981              CUMULATIVE TIME STEP:     259
 MODFLOW STRESS PERIOD      1     CURRENT TIME STEP:     259     ITERATIONS:      33

 -----------------------------------------------------------------------------------

   CUMULATIVE VOLUMES               L**3   RATES FOR THIS TIME STEP           L**3/T
   ------------------                      ------------------------

                                     IN                                         IN
                                     --                                         --
        PRECIPITATION =        7.7752D+08          PRECIPITATION =                  
           STREAMFLOW =                               STREAMFLOW =                  
     GW BOUNDARY FLOW =                         GW BOUNDARY FLOW =                  


                                    OUT                                        OUT
                                    ---                                        ---
   EVAPOTRANSPIRATION =        6.0221D+08     EVAPOTRANSPIRATION =        4684705.17
           STREAMFLOW =        7.0935D+07             STREAMFLOW =         702199.94
     GW BOUNDARY FLOW =                         GW BOUNDARY FLOW =                  

   INFLOWS - OUTFLOWS =        1.0438D+08     INFLOWS - OUTFLOWS =       -5386905.11
             --------                                   --------

 TOTAL STORAGE CHANGE =        9.8665D+07         STORAGE CHANGE =       -5392535.34
[...]
           STREAMFLOW =        1.6168D+09             STREAMFLOW =        4966705.50
     GW BOUNDARY FLOW =                         GW BOUNDARY FLOW =                  

   INFLOWS - OUTFLOWS =        1.0335D+09     INFLOWS - OUTFLOWS =        1138136.32
             --------                                   --------

 TOTAL STORAGE CHANGE =        1.0047D+09         STORAGE CHANGE =        1120822.57
       --------------                             --------------
         LAND SURFACE =        3.3540D+08           LAND SURFACE =        4606953.51
            SOIL ZONE =        5159452.14              SOIL ZONE =         -72374.96
     UNSATURATED ZONE =        1029735.29       UNSATURATED ZONE =          20071.50
       SATURATED ZONE =       -5.4729D+07         SATURATED ZONE =        -163342.98
                LAKES =        7.1787D+08                  LAKES =       -3270484.50

 OVERALL BUDGET ERROR =        2.8821D+07           BUDGET ERROR =          17313.75


  PERCENT DISCREPANCY =              0.52    PERCENT DISCREPANCY =              0.27



1
 SUMMARY VOLUMETRIC BUDGET FOR GSFLOW 
 DATE: 12 06 1983              CUMULATIVE TIME STEP:    1162
 MODFLOW STRESS PERIOD      1     CURRENT TIME STEP:    1162     ITERATIONS:       6

 -----------------------------------------------------------------------------------

   CUMULATIVE VOLUMES               L**3   RATES FOR THIS TIME STEP           L**3/T
   ------------------                      ------------------------

                                     IN                                         IN
                                     --                                         --
        PRECIPITATION =        5.6038D+09          PRECIPITATION =        3198161.89
           STREAMFLOW =                               STREAMFLOW =                  
     GW BOUNDARY FLOW =                         GW BOUNDARY FLOW =                  


                                    OUT                                        OUT
                                    ---                                        ---
   EVAPOTRANSPIRATION =        2.8996D+09     EVAPOTRANSPIRATION =         185772.24
           STREAMFLOW =        1.6522D+09             STREAMFLOW =        5064639.00
     GW BOUNDARY FLOW =                         GW BOUNDARY FLOW =                  

   INFLOWS - OUTFLOWS =        1.0520D+09     INFLOWS - OUTFLOWS =       -2052249.35
             --------                                   --------

 TOTAL STORAGE CHANGE =        1.0229D+09         STORAGE CHANGE =       -2072293.74
       --------------                             --------------
         LAND SURFACE =        3.7376D+08           LAND SURFACE =        2296320.51
            SOIL ZONE =        5725486.25              SOIL ZONE =        -131625.66
     UNSATURATED ZONE =        1325219.10       UNSATURATED ZONE =          27121.47
       SATURATED ZONE =       -5.5771D+07         SATURATED ZONE =        -162799.31
                LAKES =        6.9790D+08                  LAKES =       -4101310.75

 OVERALL BUDGET ERROR =        2.9055D+07           BUDGET ERROR =          20044.40


  PERCENT DISCREPANCY =              0.52    PERCENT DISCREPANCY =              0.38



1
 SUMMARY VOLUMETRIC BUDGET FOR GSFLOW 
 DATE: 12 13 1983              CUMULATIVE TIME STEP:    1169
 MODFLOW STRESS PERIOD      1     CURRENT TIME STEP:    1169     ITERATIONS:      13

 -----------------------------------------------------------------------------------

   CUMULATIVE VOLUMES               L**3   RATES FOR THIS TIME STEP           L**3/T
   ------------------                      ------------------------

                                     IN                                         IN
                                     --                                         --
        PRECIPITATION =        5.6998D+09          PRECIPITATION =        9594484.95
           STREAMFLOW =                               STREAMFLOW =                  
     GW BOUNDARY FLOW =                         GW BOUNDARY FLOW =                  


                                    OUT                                        OUT
                                    ---                                        ---
   EVAPOTRANSPIRATION =        2.9033D+09     EVAPOTRANSPIRATION =         226485.72
           STREAMFLOW =        1.6892D+09             STREAMFLOW =        5260512.00
     GW BOUNDARY FLOW =                         GW BOUNDARY FLOW =                  

   INFLOWS - OUTFLOWS =        1.1072D+09     INFLOWS - OUTFLOWS =        4107487.23
             --------                                   --------

 TOTAL STORAGE CHANGE =        1.0779D+09         STORAGE CHANGE =        4075700.74
       --------------                             --------------
         LAND SURFACE =        4.3778D+08           LAND SURFACE =        7019560.16
            SOIL ZONE =        6971598.93              SOIL ZONE =        -183686.31
     UNSATURATED ZONE =        1703274.95       UNSATURATED ZONE =          43851.71
       SATURATED ZONE =       -5.6402D+07         SATURATED ZONE =        -177823.08
                LAKES =        6.8781D+08                  LAKES =       -2626201.75

 OVERALL BUDGET ERROR =        2.9370D+07           BUDGET ERROR =          31786.49


  PERCENT DISCREPANCY =              0.52    PERCENT DISCREPANCY =              0.33



1
 SUMMARY VOLUMETRIC BUDGET FOR GSFLOW 
 DATE: 12 20 1983              CUMULATIVE TIME STEP:    1176
 MODFLOW STRESS PERIOD      1     CURRENT TIME STEP:    1176     ITERATIONS:       3

 -----------------------------------------------------------------------------------

   CUMULATIVE VOLUMES               L**3   RATES FOR THIS TIME STEP           L**3/T
   ------------------                      ------------------------

                                     IN                                         IN
                                     --                                         --
        PRECIPITATION =        5.7158D+09          PRECIPITATION =                  
           STREAMFLOW =                               STREAMFLOW =                  
     GW BOUNDARY FLOW =                         GW BOUNDARY FLOW =                  


                                    OUT                                        OUT
                                    ---                                        ---
   EVAPOTRANSPIRATION =        2.9112D+09     EVAPOTRANSPIRATION =         347238.88
           STREAMFLOW =        1.7277D+09             STREAMFLOW =        5578472.50
     GW BOUNDARY FLOW =                         GW BOUNDARY FLOW =                  

   INFLOWS - OUTFLOWS =        1.0769D+09     INFLOWS - OUTFLOWS =       -5925711.38
             --------                                   --------

 TOTAL STORAGE CHANGE =        1.0473D+09         STORAGE CHANGE =       -5958814.09
       --------------                             --------------
         LAND SURFACE =        4.4092D+08           LAND SURFACE =        -229898.36
            SOIL ZONE =        7708784.31              SOIL ZONE =        -180146.47
     UNSATURATED ZONE =        2216877.63       UNSATURATED ZONE =          43576.86
       SATURATED ZONE =       -5.7396D+07         SATURATED ZONE =        -186194.62
                LAKES =        6.5382D+08                  LAKES =       -5406151.50

 OVERALL BUDGET ERROR =        2.9617D+07           BUDGET ERROR =          33102.71


  PERCENT DISCREPANCY =              0.52    PERCENT DISCREPANCY =              0.56



1
 SUMMARY VOLUMETRIC BUDGET FOR GSFLOW 
 DATE: 12 27 1983              CUMULATIVE TIME STEP:    1183
 MODFLOW STRESS PERIOD      1     CURRENT TIME STEP:    1183     ITERATIONS:      20

 -----------------------------------------------------------------------------------

   CUMULATIVE VOLUMES               L**3   RATES FOR THIS TIME STEP           L**3/T
   ------------------                      ------------------------

                                     IN                                         IN
                                     --                                         --
        PRECIPITATION =        5.8917D+09          PRECIPITATION =        9594484.95
           STREAMFLOW =                               STREAMFLOW =                  
     GW BOUNDARY FLOW =                         GW BOUNDARY FLOW =                  


                                    OUT                                        OUT
                                    ---                                        ---
   EVAPOTRANSPIRATION =        2.9134D+09     EVAPOTRANSPIRATION =         396822.96
           STREAMFLOW =        1.7667D+09             STREAMFLOW =        5677393.00
     GW BOUNDARY FLOW =                         GW BOUNDARY FLOW =                  

   INFLOWS - OUTFLOWS =        1.2115D+09     INFLOWS - OUTFLOWS =        3520268.99
             --------                                   --------

 TOTAL STORAGE CHANGE =        1.1816D+09         STORAGE CHANGE =        3465037.94
       --------------                             --------------
         LAND SURFACE =        5.6571D+08           LAND SURFACE =        5841371.51
            SOIL ZONE =        8442567.91              SOIL ZONE =         228235.95
     UNSATURATED ZONE =        2465136.01       UNSATURATED ZONE =          90982.18
       SATURATED ZONE =       -5.7989D+07         SATURATED ZONE =         -82976.20
                LAKES =        6.6302D+08                  LAKES =       -2612575.50

 OVERALL BUDGET ERROR =        2.9900D+07           BUDGET ERROR =          55231.05


  PERCENT DISCREPANCY =              0.51    PERCENT DISCREPANCY =              0.58



1
 SUMMARY VOLUMETRIC BUDGET FOR GSFLOW 
 DATE: 01 03 1984              CUMULATIVE TIME STEP:    1190
 MODFLOW STRESS PERIOD      1     CURRENT TIME STEP:    1190     ITERATIONS:       4

 -----------------------------------------------------------------------------------

   CUMULATIVE VOLUMES               L**3   RATES FOR THIS TIME STEP           L**3/T
   ------------------                      ------------------------

                                     IN                                         IN
                                     --                                         --
        PRECIPITATION =        5.9235D+09          PRECIPITATION =                  
           STREAMFLOW =                               STREAMFLOW =                  
     GW BOUNDARY FLOW =                         GW BOUNDARY FLOW =                  


                                    OUT                                        OUT
                                    ---                                        ---
   EVAPOTRANSPIRATION =        2.9198D+09     EVAPOTRANSPIRATION =        1448182.93
           STREAMFLOW =        1.8063D+09             STREAMFLOW =        5603064.00
     GW BOUNDARY FLOW =                         GW BOUNDARY FLOW =                  

   INFLOWS - OUTFLOWS =        1.1974D+09     INFLOWS - OUTFLOWS =       -7051246.93
             --------                                   --------

 TOTAL STORAGE CHANGE =        1.1672D+09         STORAGE CHANGE =       -7069590.36
       --------------                             --------------
         LAND SURFACE =        5.7870D+08           LAND SURFACE =        -976138.39
            SOIL ZONE =        9154420.86              SOIL ZONE =        -188386.77
     UNSATURATED ZONE =        3012493.21       UNSATURATED ZONE =          43019.94
       SATURATED ZONE =       -5.8836D+07         SATURATED ZONE =        -193800.64
                LAKES =        6.3515D+08                  LAKES =       -5754284.50

 OVERALL BUDGET ERROR =        3.0180D+07           BUDGET ERROR =          18343.43


  PERCENT DISCREPANCY =              0.51    PERCENT DISCREPANCY =              0.26



1
 SUMMARY VOLUMETRIC BUDGET FOR GSFLOW 
 DATE: 01 10 1984              CUMULATIVE TIME STEP:    1197
 MODFLOW STRESS PERIOD      1     CURRENT TIME STEP:    1197     ITERATIONS:       7

 -----------------------------------------------------------------------------------

   CUMULATIVE VOLUMES               L**3   RATES FOR THIS TIME STEP           L**3/T
   ------------------                      ------------------------

                                     IN                                         IN
                                     --                                         --
        PRECIPITATION =        5.9235D+09          PRECIPITATION =                  
           STREAMFLOW =                               STREAMFLOW =                  
     GW BOUNDARY FLOW =                         GW BOUNDARY FLOW =                  


                                    OUT                                        OUT
                                    ---                                        ---
   EVAPOTRANSPIRATION =        2.9322D+09     EVAPOTRANSPIRATION =        1728847.21
           STREAMFLOW =        1.8438D+09             STREAMFLOW =        5235930.50
     GW BOUNDARY FLOW =                         GW BOUNDARY FLOW =                  

   INFLOWS - OUTFLOWS =        1.1475D+09     INFLOWS - OUTFLOWS =       -6964777.71
             --------                                   --------

 TOTAL STORAGE CHANGE =        1.1171D+09         STORAGE CHANGE =       -7006259.94
       --------------                             --------------
         LAND SURFACE =        5.6643D+08           LAND SURFACE =       -2016428.12
            SOIL ZONE =        1.0277D+07              SOIL ZONE =         296722.51
     UNSATURATED ZONE =        3382103.87       UNSATURATED ZONE =          76070.77
       SATURATED ZONE =       -5.9634D+07         SATURATED ZONE =         -71878.61
                LAKES =        5.9663D+08                  LAKES =       -5290746.50

 OVERALL BUDGET ERROR =        3.0407D+07           BUDGET ERROR =          41482.24


  PERCENT DISCREPANCY =              0.51    PERCENT DISCREPANCY =              0.59



1
 SUMMARY VOLUMETRIC BUDGET FOR GSFLOW 
 DATE: 01 17 1984              CUMULATIVE TIME STEP:    1204
 MODFLOW STRESS PERIOD      1     CURRENT TIME STEP:    1204     ITERATIONS:       3

 -----------------------------------------------------------------------------------

   CUMULATIVE VOLUMES               L**3   RATES FOR THIS TIME STEP           L**3/T
   ------------------                      ------------------------

                                     IN                                         IN
                                     --                                         --
        PRECIPITATION =        5.9475D+09          PRECIPITATION =                  
           STREAMFLOW =                               STREAMFLOW =                  
     GW BOUNDARY FLOW =                         GW BOUNDARY FLOW =                  


                                    OUT                                        OUT
                                    ---                                        ---
   EVAPOTRANSPIRATION =        2.9360D+09     EVAPOTRANSPIRATION =         514475.60
           STREAMFLOW =        1.8795D+09             STREAMFLOW =        5015581.50
     GW BOUNDARY FLOW =                         GW BOUNDARY FLOW =                  

   INFLOWS - OUTFLOWS =        1.1320D+09     INFLOWS - OUTFLOWS =       -5530057.10
             --------                                   --------

 TOTAL STORAGE CHANGE =        1.1015D+09         STORAGE CHANGE =       -5535776.26
       --------------                             --------------
         LAND SURFACE =        5.8186D+08           LAND SURFACE =        -369940.34
            SOIL ZONE =        9273332.37              SOIL ZONE =        -101200.14
     UNSATURATED ZONE =        3443025.05       UNSATURATED ZONE =          -5268.09
       SATURATED ZONE =       -6.0655D+07         SATURATED ZONE =        -151785.69
                LAKES =        5.6758D+08                  LAKES =       -4907582.00

 OVERALL BUDGET ERROR =        3.0525D+07           BUDGET ERROR =           5719.16


  PERCENT DISCREPANCY =              0.51    PERCENT DISCREPANCY =              0.10



1
 SUMMARY VOLUMETRIC BUDGET FOR GSFLOW 
 DATE: 01 24 1984              CUMULATIVE TIME STEP:    1211
 MODFLOW STRESS PERIOD      1     CURRENT TIME STEP:    1211     ITERATIONS:       9

 -----------------------------------------------------------------------------------

   CUMULATIVE VOLUMES               L**3   RATES FOR THIS TIME STEP           L**3/T
   ------------------                      ------------------------

                                     IN                                         IN
                                     --                                         --
        PRECIPITATION =        5.9535D+09          PRECIPITATION =                  
           STREAMFLOW =                               STREAMFLOW =                  
     GW BOUNDARY FLOW =                         GW BOUNDARY FLOW =                  


                                    OUT                                        OUT
                                    ---                                        ---
   EVAPOTRANSPIRATION =        2.9414D+09     EVAPOTRANSPIRATION =        1047930.70
           STREAMFLOW =        1.9143D+09             STREAMFLOW =        4917687.00
     GW BOUNDARY FLOW =                         GW BOUNDARY FLOW =                  

   INFLOWS - OUTFLOWS =        1.0978D+09     INFLOWS - OUTFLOWS =       -5965617.70
             --------                                   --------

 TOTAL STORAGE CHANGE =        1.0672D+09         STORAGE CHANGE =       -5980260.81
       --------------                             --------------
         LAND SURFACE =        5.8317D+08           LAND SURFACE =        -583964.56
            SOIL ZONE =        8734939.12              SOIL ZONE =         -67818.31
     UNSATURATED ZONE =        3245445.85       UNSATURATED ZONE =         -41938.93
       SATURATED ZONE =       -6.1650D+07         SATURATED ZONE =        -136195.00
                LAKES =        5.3371D+08                  LAKES =       -5150344.00

 OVERALL BUDGET ERROR =        3.0611D+07           BUDGET ERROR =          14643.11


  PERCENT DISCREPANCY =              0.52    PERCENT DISCREPANCY =              0.25



 Number of time steps:   1217;  Number of non-convergence:   0
 MF iterations:         22581;  SZ iterations:           22627
 Average MF iterations: 18.55;  Average SZ iterations:   18.59
 Maximum MF iterations:   131;  Maximum SZ iterations:     131

MF iteration distribution:      0   21   79   97   69   37   34   43   48   42
                               33   45   49   52   23   30   25   14   35   19
                               22   13   31   14   14   14   27   15   24    9
                               15    8   21    9   27    8   21    7    7    6
                                8    8    7    5    7    6    5    6    5    5
                                3    8    3    2    2    2    0    0    1    1
                                2    1    2    2    3    1    2    0    1    1
                                1    1    0    0    0    0    1    0    0    8

SZ computation distribution:    0   19   81   97   69   36   33   43   48   43
                               34   37   55   47   28   26   30   14   30   24
                               23   12   32   14   14   14   27   15   24    9
                               15    8   21    9   27    8   21    7    7    6
                                8    8    7    5    7    6    5    6    4    6
                                3    8    3    2    2    2    0    0    1    1
                                2    1    2    2    3    1    2    0    1    1
                                1    1    0    0    0    0    1    0    0    8

