1
 SUMMARY VOLUMETRIC BUDGET FOR GSFLOW 
 DATE: 10 07 1980              CUMULATIVE TIME STEP:       7
 MODFLOW STRESS PERIOD      1     CURRENT TIME STEP:       7     ITERATIONS:      14

 -----------------------------------------------------------------------------------

   CUMULATIVE VOLUMES               L**3   RATES FOR THIS TIME STEP           L**3/T
   ------------------                      ------------------------

                                     IN                                         IN
                                     --                                         --
        PRECIPITATION =                            PRECIPITATION =                  
           STREAMFLOW =                               STREAMFLOW =                  
     GW BOUNDARY FLOW =                         GW BOUNDARY FLOW =                  


                                    OUT                                        OUT
                                    ---                                        ---
   EVAPOTRANSPIRATION =        1.5511D+07     EVAPOTRANSPIRATION =        1478881.36
           STREAMFLOW =        1672058.77             STREAMFLOW =         183556.67
     GW BOUNDARY FLOW =                         GW BOUNDARY FLOW =                  

   INFLOWS - OUTFLOWS =       -1.7183D+07     INFLOWS - OUTFLOWS =       -1662438.03
             --------                                   --------

 TOTAL STORAGE CHANGE =       -1.7157D+07         STORAGE CHANGE =       -1664381.50
       --------------                             --------------
         LAND SURFACE =                             LAND SURFACE =                  
            SOIL ZONE =       -5762960.39              SOIL ZONE =        -270465.11
     UNSATURATED ZONE =       -1007862.74       UNSATURATED ZONE =         -54922.61
       SATURATED ZONE =       -1300626.94         SATURATED ZONE =        -269871.91
                LAKES =       -9085744.75                  LAKES =       -1069121.88

 OVERALL BUDGET ERROR =         -25985.08           BUDGET ERROR =           1943.46


  PERCENT DISCREPANCY =             -0.15    PERCENT DISCREPANCY =              0.12



1
 SUMMARY VOLUMETRIC BUDGET FOR GSFLOW 
 DATE: 10 14 1980              CUMULATIVE TIME STEP:      14
 MODFLOW STRESS PERIOD      1     CURRENT TIME STEP:      14     ITERATIONS:       3

 -----------------------------------------------------------------------------------

   CUMULATIVE VOLUMES               L**3   RATES FOR THIS TIME STEP           L**3/T
   ------------------                      ------------------------

                                     IN                                         IN
                                     --                                         --
        PRECIPITATION =        1.3442D+07          PRECIPITATION =        6721104.51
           STREAMFLOW =                               STREAMFLOW =                  
     GW BOUNDARY FLOW =                         GW BOUNDARY FLOW =                  


                                    OUT                                        OUT
                                    ---                                        ---
   EVAPOTRANSPIRATION =        2.3219D+07     EVAPOTRANSPIRATION =         507117.51
           STREAMFLOW =        2279257.54             STREAMFLOW =          34825.50
     GW BOUNDARY FLOW =                         GW BOUNDARY FLOW =                  

   INFLOWS - OUTFLOWS =       -1.2056D+07     INFLOWS - OUTFLOWS =        6179161.50
             --------                                   --------

 TOTAL STORAGE CHANGE =       -1.2123D+07         STORAGE CHANGE =        6136212.93
       --------------                             --------------
         LAND SURFACE =        2292332.54           LAND SURFACE =        1396244.76
            SOIL ZONE =         153423.19              SOIL ZONE =        3131504.41
     UNSATURATED ZONE =       -1444973.64       UNSATURATED ZONE =         -57230.39
       SATURATED ZONE =       -2729795.11         SATURATED ZONE =        -121178.61
                LAKES =       -1.0394D+07                  LAKES =        1786872.75

 OVERALL BUDGET ERROR =          66945.99           BUDGET ERROR =          42948.57


  PERCENT DISCREPANCY =              0.26    PERCENT DISCREPANCY =              0.64



1
 SUMMARY VOLUMETRIC BUDGET FOR GSFLOW 
 DATE: 10 21 1980              CUMULATIVE TIME STEP:      21
 MODFLOW STRESS PERIOD      1     CURRENT TIME STEP:      21     ITERATIONS:       3

 -----------------------------------------------------------------------------------

   CUMULATIVE VOLUMES               L**3   RATES FOR THIS TIME STEP           L**3/T
   ------------------                      ------------------------

                                     IN                                         IN
                                     --                                         --
        PRECIPITATION =        1.6803D+07          PRECIPITATION =                  
           STREAMFLOW =                               STREAMFLOW =                  
     GW BOUNDARY FLOW =                         GW BOUNDARY FLOW =                  


                                    OUT                                        OUT
                                    ---                                        ---
   EVAPOTRANSPIRATION =        3.0233D+07     EVAPOTRANSPIRATION =        1467066.03
           STREAMFLOW =        3039696.79             STREAMFLOW =         364392.81
     GW BOUNDARY FLOW =                         GW BOUNDARY FLOW =                  

   INFLOWS - OUTFLOWS =       -1.6470D+07     INFLOWS - OUTFLOWS =       -1831458.84
             --------                                   --------

 TOTAL STORAGE CHANGE =       -1.6550D+07         STORAGE CHANGE =       -1828178.12
       --------------                             --------------
         LAND SURFACE =         450933.11           LAND SURFACE =        -157820.81
            SOIL ZONE =        -328511.80              SOIL ZONE =        -679592.61
     UNSATURATED ZONE =       -1881069.97       UNSATURATED ZONE =         -58658.82
       SATURATED ZONE =       -3772063.83         SATURATED ZONE =        -158367.25
                LAKES =       -1.1019D+07                  LAKES =        -773738.62

 OVERALL BUDGET ERROR =          79955.60           BUDGET ERROR =          -3280.72


  PERCENT DISCREPANCY =              0.24    PERCENT DISCREPANCY =             -0.18



1
 SUMMARY VOLUMETRIC BUDGET FOR GSFLOW 
 DATE: 10 28 1980              CUMULATIVE TIME STEP:      28
 MODFLOW STRESS PERIOD      1     CURRENT TIME STEP:      28     ITERATIONS:       4

 -----------------------------------------------------------------------------------

   CUMULATIVE VOLUMES               L**3   RATES FOR THIS TIME STEP           L**3/T
   ------------------                      ------------------------

                                     IN                                         IN
                                     --                                         --
        PRECIPITATION =        4.0327D+07          PRECIPITATION =                  
           STREAMFLOW =                               STREAMFLOW =                  
     GW BOUNDARY FLOW =                         GW BOUNDARY FLOW =                  


                                    OUT                                        OUT
                                    ---                                        ---
   EVAPOTRANSPIRATION =        3.7280D+07     EVAPOTRANSPIRATION =         461412.22
           STREAMFLOW =        5483164.94             STREAMFLOW =         342843.84
     GW BOUNDARY FLOW =                         GW BOUNDARY FLOW =                  

   INFLOWS - OUTFLOWS =       -2436231.72     INFLOWS - OUTFLOWS =        -804256.06
             --------                                   --------

 TOTAL STORAGE CHANGE =       -3044895.33         STORAGE CHANGE =        -769323.72
       --------------                             --------------
         LAND SURFACE =        4658064.73           LAND SURFACE =        -166816.91
            SOIL ZONE =        7112344.92              SOIL ZONE =        -271772.24
     UNSATURATED ZONE =       -2174529.23       UNSATURATED ZONE =         -31871.42
       SATURATED ZONE =       -4523351.16         SATURATED ZONE =        -126025.81
                LAKES =       -8117424.59                  LAKES =        -172837.34

 OVERALL BUDGET ERROR =         608663.60           BUDGET ERROR =         -34932.34

  ***WARNING, FLUX RATES OFF > 3%

  PERCENT DISCREPANCY =              1.41    PERCENT DISCREPANCY =             -4.44



1
 SUMMARY VOLUMETRIC BUDGET FOR GSFLOW 
 DATE: 11 04 1980              CUMULATIVE TIME STEP:      35
 MODFLOW STRESS PERIOD      1     CURRENT TIME STEP:      35     ITERATIONS:       7

 -----------------------------------------------------------------------------------

   CUMULATIVE VOLUMES               L**3   RATES FOR THIS TIME STEP           L**3/T
   ------------------                      ------------------------

                                     IN                                         IN
                                     --                                         --
        PRECIPITATION =        5.0408D+07          PRECIPITATION =                  
           STREAMFLOW =                               STREAMFLOW =                  
     GW BOUNDARY FLOW =                         GW BOUNDARY FLOW =                  


                                    OUT                                        OUT
                                    ---                                        ---
   EVAPOTRANSPIRATION =        5.2114D+07     EVAPOTRANSPIRATION =        2794238.89
           STREAMFLOW =        7932063.29             STREAMFLOW =         350030.38
     GW BOUNDARY FLOW =                         GW BOUNDARY FLOW =                  

   INFLOWS - OUTFLOWS =       -9638044.93     INFLOWS - OUTFLOWS =       -3144269.27
             --------                                   --------

 TOTAL STORAGE CHANGE =       -1.0599D+07         STORAGE CHANGE =       -3149762.83
       --------------                             --------------
         LAND SURFACE =         206598.96           LAND SURFACE =         -41867.41
            SOIL ZONE =        3878930.13              SOIL ZONE =       -1780658.57
     UNSATURATED ZONE =       -2137064.42       UNSATURATED ZONE =         -46057.97
       SATURATED ZONE =       -5062767.92         SATURATED ZONE =        -247453.14
                LAKES =       -7484228.40                  LAKES =       -1033725.75

 OVERALL BUDGET ERROR =         960486.72           BUDGET ERROR =           5493.57


  PERCENT DISCREPANCY =              1.59    PERCENT DISCREPANCY =              0.17



1
 SUMMARY VOLUMETRIC BUDGET FOR GSFLOW 
 DATE: 11 11 1980              CUMULATIVE TIME STEP:      42
 MODFLOW STRESS PERIOD      1     CURRENT TIME STEP:      42     ITERATIONS:       5

 -----------------------------------------------------------------------------------

   CUMULATIVE VOLUMES               L**3   RATES FOR THIS TIME STEP           L**3/T
   ------------------                      ------------------------

                                     IN                                         IN
                                     --                                         --
        PRECIPITATION =        7.9485D+07          PRECIPITATION =        3230734.65
           STREAMFLOW =                               STREAMFLOW =                  
     GW BOUNDARY FLOW =                         GW BOUNDARY FLOW =                  


                                    OUT                                        OUT
                                    ---                                        ---
   EVAPOTRANSPIRATION =        6.9953D+07     EVAPOTRANSPIRATION =        1696113.67
           STREAMFLOW =        9809691.39             STREAMFLOW =         250092.14
     GW BOUNDARY FLOW =                         GW BOUNDARY FLOW =                  

   INFLOWS - OUTFLOWS =        -277561.95     INFLOWS - OUTFLOWS =        1284528.84
             --------                                   --------

 TOTAL STORAGE CHANGE =       -1502715.16         STORAGE CHANGE =        1148813.62
       --------------                             --------------
         LAND SURFACE =        3266569.49           LAND SURFACE =        -110998.46
            SOIL ZONE =        8678321.24              SOIL ZONE =         699212.19
     UNSATURATED ZONE =       -2168565.26       UNSATURATED ZONE =          39575.42
       SATURATED ZONE =       -5933053.91         SATURATED ZONE =         -35744.53
                LAKES =       -5345986.71                  LAKES =         556769.00

 OVERALL BUDGET ERROR =        1225153.21           BUDGET ERROR =         135715.22

  ***WARNING, FLUX RATES OFF > 3%

  PERCENT DISCREPANCY =              1.52    PERCENT DISCREPANCY =              4.29



1
 SUMMARY VOLUMETRIC BUDGET FOR GSFLOW 
 DATE: 11 18 1980              CUMULATIVE TIME STEP:      49
 MODFLOW STRESS PERIOD      1     CURRENT TIME STEP:      49     ITERATIONS:       3

 -----------------------------------------------------------------------------------

   CUMULATIVE VOLUMES               L**3   RATES FOR THIS TIME STEP           L**3/T
   ------------------                      ------------------------

                                     IN                                         IN
                                     --                                         --
        PRECIPITATION =        8.5946D+07          PRECIPITATION =                  
           STREAMFLOW =                               STREAMFLOW =                  
     GW BOUNDARY FLOW =                         GW BOUNDARY FLOW =                  


                                    OUT                                        OUT
                                    ---                                        ---
   EVAPOTRANSPIRATION =        7.6245D+07     EVAPOTRANSPIRATION =        1510955.21
           STREAMFLOW =        1.1638D+07             STREAMFLOW =         312770.31
     GW BOUNDARY FLOW =                         GW BOUNDARY FLOW =                  

   INFLOWS - OUTFLOWS =       -1937198.86     INFLOWS - OUTFLOWS =       -1823725.52
             --------                                   --------

 TOTAL STORAGE CHANGE =       -2898673.10         STORAGE CHANGE =       -1769375.56
       --------------                             --------------
         LAND SURFACE =        3785521.16           LAND SURFACE =        -428824.73
            SOIL ZONE =        8057475.77              SOIL ZONE =        -668178.84
     UNSATURATED ZONE =       -2095848.85       UNSATURATED ZONE =          19793.61
       SATURATED ZONE =       -7168063.68         SATURATED ZONE =        -170627.75
                LAKES =       -5477757.51                  LAKES =        -521537.84

 OVERALL BUDGET ERROR =         961474.25           BUDGET ERROR =         -54349.96

  ***WARNING, FLUX RATES OFF > 3%

  PERCENT DISCREPANCY =              1.09    PERCENT DISCREPANCY =             -3.03



1
 SUMMARY VOLUMETRIC BUDGET FOR GSFLOW 
 DATE: 11 25 1980              CUMULATIVE TIME STEP:      56
 MODFLOW STRESS PERIOD      1     CURRENT TIME STEP:      56     ITERATIONS:       3

 -----------------------------------------------------------------------------------

   CUMULATIVE VOLUMES               L**3   RATES FOR THIS TIME STEP           L**3/T
   ------------------                      ------------------------

                                     IN                                         IN
                                     --                                         --
        PRECIPITATION =        8.9177D+07          PRECIPITATION =                  
           STREAMFLOW =                               STREAMFLOW =                  
     GW BOUNDARY FLOW =                         GW BOUNDARY FLOW =                  


                                    OUT                                        OUT
                                    ---                                        ---
   EVAPOTRANSPIRATION =        8.3095D+07     EVAPOTRANSPIRATION =         272926.42
           STREAMFLOW =        1.4055D+07             STREAMFLOW =         437097.81
     GW BOUNDARY FLOW =                         GW BOUNDARY FLOW =                  

   INFLOWS - OUTFLOWS =       -7972266.73     INFLOWS - OUTFLOWS =        -710024.23
             --------                                   --------

 TOTAL STORAGE CHANGE =       -9017014.73         STORAGE CHANGE =        -730969.86
       --------------                             --------------
         LAND SURFACE =        3623166.05           LAND SURFACE =         -24347.90
            SOIL ZONE =        6057962.39              SOIL ZONE =        -183622.54
     UNSATURATED ZONE =       -2108552.62       UNSATURATED ZONE =         -17509.20
       SATURATED ZONE =       -8405950.91         SATURATED ZONE =        -182879.81
                LAKES =       -8183639.64                  LAKES =        -322610.41

 OVERALL BUDGET ERROR =        1044748.00           BUDGET ERROR =          20945.62


  PERCENT DISCREPANCY =              1.07    PERCENT DISCREPANCY =              2.91



1
 SUMMARY VOLUMETRIC BUDGET FOR GSFLOW 
 DATE: 12 02 1980              CUMULATIVE TIME STEP:      63
 MODFLOW STRESS PERIOD      1     CURRENT TIME STEP:      63     ITERATIONS:       4

 -----------------------------------------------------------------------------------

   CUMULATIVE VOLUMES               L**3   RATES FOR THIS TIME STEP           L**3/T
   ------------------                      ------------------------

                                     IN                                         IN
                                     --                                         --
        PRECIPITATION =        1.0846D+08          PRECIPITATION =        3198161.89
           STREAMFLOW =                               STREAMFLOW =                  
     GW BOUNDARY FLOW =                         GW BOUNDARY FLOW =                  


                                    OUT                                        OUT
                                    ---                                        ---
   EVAPOTRANSPIRATION =        9.0643D+07     EVAPOTRANSPIRATION =        1276583.94
           STREAMFLOW =        1.7318D+07             STREAMFLOW =         437214.94
     GW BOUNDARY FLOW =                         GW BOUNDARY FLOW =                  

   INFLOWS - OUTFLOWS =         502941.81     INFLOWS - OUTFLOWS =        1484363.02
             --------                                   --------

 TOTAL STORAGE CHANGE =       -1030329.72         STORAGE CHANGE =        1308290.01
       --------------                             --------------
         LAND SURFACE =        6315725.60           LAND SURFACE =       -1022199.63
            SOIL ZONE =        9942920.31              SOIL ZONE =        1753866.05
     UNSATURATED ZONE =       -1959822.92       UNSATURATED ZONE =          56595.49
       SATURATED ZONE =       -9139162.17         SATURATED ZONE =         -41997.78
                LAKES =       -6189990.54                  LAKES =         562025.88

 OVERALL BUDGET ERROR =        1533271.53           BUDGET ERROR =         176073.00

  ***WARNING, FLUX RATES OFF > 3%

  PERCENT DISCREPANCY =              1.41    PERCENT DISCREPANCY =              5.66



1
 SUMMARY VOLUMETRIC BUDGET FOR GSFLOW 
 DATE: 12 09 1980              CUMULATIVE TIME STEP:      70
 MODFLOW STRESS PERIOD      1     CURRENT TIME STEP:      70     ITERATIONS:       3

 -----------------------------------------------------------------------------------

   CUMULATIVE VOLUMES               L**3   RATES FOR THIS TIME STEP           L**3/T
   ------------------                      ------------------------

                                     IN                                         IN
                                     --                                         --
        PRECIPITATION =        1.7882D+08          PRECIPITATION =                  
           STREAMFLOW =                               STREAMFLOW =                  
     GW BOUNDARY FLOW =                         GW BOUNDARY FLOW =                  


                                    OUT                                        OUT
                                    ---                                        ---
   EVAPOTRANSPIRATION =        9.2974D+07     EVAPOTRANSPIRATION =         386685.87
           STREAMFLOW =        2.0282D+07             STREAMFLOW =         420980.56
     GW BOUNDARY FLOW =                         GW BOUNDARY FLOW =                  

   INFLOWS - OUTFLOWS =        6.5567D+07     INFLOWS - OUTFLOWS =        -807666.43
             --------                                   --------

 TOTAL STORAGE CHANGE =        6.3712D+07         STORAGE CHANGE =        -824848.33
       --------------                             --------------
         LAND SURFACE =        5.0168D+07           LAND SURFACE =        -246649.42
            SOIL ZONE =        1.3107D+07              SOIL ZONE =        -140630.34
     UNSATURATED ZONE =       -1523919.06       UNSATURATED ZONE =          40026.37
       SATURATED ZONE =       -1.0110D+07         SATURATED ZONE =        -207505.19
                LAKES =        1.2071D+07                  LAKES =        -270089.75

 OVERALL BUDGET ERROR =        1855143.81           BUDGET ERROR =          17181.90


  PERCENT DISCREPANCY =              1.04    PERCENT DISCREPANCY =              2.10



1
 SUMMARY VOLUMETRIC BUDGET FOR GSFLOW 
 DATE: 12 16 1980              CUMULATIVE TIME STEP:      77
 MODFLOW STRESS PERIOD      1     CURRENT TIME STEP:      77     ITERATIONS:       3

 -----------------------------------------------------------------------------------

   CUMULATIVE VOLUMES               L**3   RATES FOR THIS TIME STEP           L**3/T
   ------------------                      ------------------------

                                     IN                                         IN
                                     --                                         --
        PRECIPITATION =        1.7882D+08          PRECIPITATION =                  
           STREAMFLOW =                               STREAMFLOW =                  
     GW BOUNDARY FLOW =                         GW BOUNDARY FLOW =                  


                                    OUT                                        OUT
                                    ---                                        ---
   EVAPOTRANSPIRATION =        9.9447D+07     EVAPOTRANSPIRATION =        1457720.42
           STREAMFLOW =        2.3263D+07             STREAMFLOW =         430698.91
     GW BOUNDARY FLOW =                         GW BOUNDARY FLOW =                  

   INFLOWS - OUTFLOWS =        5.6114D+07     INFLOWS - OUTFLOWS =       -1888419.33
             --------                                   --------

 TOTAL STORAGE CHANGE =        5.4069D+07         STORAGE CHANGE =       -1926303.12
       --------------                             --------------
         LAND SURFACE =        4.5744D+07           LAND SURFACE =       -1259208.96
            SOIL ZONE =        1.2796D+07              SOIL ZONE =         237906.07
     UNSATURATED ZONE =       -1377837.03       UNSATURATED ZONE =          20128.61
       SATURATED ZONE =       -1.1441D+07         SATURATED ZONE =        -168638.22
                LAKES =        8347863.37                  LAKES =        -756490.62

 OVERALL BUDGET ERROR =        2044534.91           BUDGET ERROR =          37883.79


  PERCENT DISCREPANCY =              1.15    PERCENT DISCREPANCY =              1.99



1
 SUMMARY VOLUMETRIC BUDGET FOR GSFLOW 
 DATE: 12 23 1980              CUMULATIVE TIME STEP:      84
 MODFLOW STRESS PERIOD      1     CURRENT TIME STEP:      84     ITERATIONS:       3

 -----------------------------------------------------------------------------------

   CUMULATIVE VOLUMES               L**3   RATES FOR THIS TIME STEP           L**3/T
   ------------------                      ------------------------

                                     IN                                         IN
                                     --                                         --
        PRECIPITATION =        1.8522D+08          PRECIPITATION =        3198161.89
           STREAMFLOW =                               STREAMFLOW =                  
     GW BOUNDARY FLOW =                         GW BOUNDARY FLOW =                  


                                    OUT                                        OUT
                                    ---                                        ---
   EVAPOTRANSPIRATION =        1.0782D+08     EVAPOTRANSPIRATION =        1096960.74
           STREAMFLOW =        2.6316D+07             STREAMFLOW =         443565.56
     GW BOUNDARY FLOW =                         GW BOUNDARY FLOW =                  

   INFLOWS - OUTFLOWS =        5.1083D+07     INFLOWS - OUTFLOWS =        1657635.59
             --------                                   --------

 TOTAL STORAGE CHANGE =        4.8721D+07         STORAGE CHANGE =        1507717.69
       --------------                             --------------
         LAND SURFACE =        4.0221D+07           LAND SURFACE =        -367739.35
            SOIL ZONE =        1.5774D+07              SOIL ZONE =        1371225.56
     UNSATURATED ZONE =       -1092824.11       UNSATURATED ZONE =          94422.52
       SATURATED ZONE =       -1.2355D+07         SATURATED ZONE =         -80737.01
                LAKES =        6174130.59                  LAKES =         490545.97

 OVERALL BUDGET ERROR =        2362211.16           BUDGET ERROR =         149917.90

  ***WARNING, FLUX RATES OFF > 3%

  PERCENT DISCREPANCY =              1.28    PERCENT DISCREPANCY =              4.80



1
 SUMMARY VOLUMETRIC BUDGET FOR GSFLOW 
 DATE: 12 30 1980              CUMULATIVE TIME STEP:      91
 MODFLOW STRESS PERIOD      1     CURRENT TIME STEP:      91     ITERATIONS:       4

 -----------------------------------------------------------------------------------

   CUMULATIVE VOLUMES               L**3   RATES FOR THIS TIME STEP           L**3/T
   ------------------                      ------------------------

                                     IN                                         IN
                                     --                                         --
        PRECIPITATION =        1.8522D+08          PRECIPITATION =                  
           STREAMFLOW =                               STREAMFLOW =                  
     GW BOUNDARY FLOW =                         GW BOUNDARY FLOW =                  


                                    OUT                                        OUT
                                    ---                                        ---
   EVAPOTRANSPIRATION =        1.1805D+08     EVAPOTRANSPIRATION =        1240471.41
           STREAMFLOW =        2.9399D+07             STREAMFLOW =         445279.78
     GW BOUNDARY FLOW =                         GW BOUNDARY FLOW =                  

   INFLOWS - OUTFLOWS =        3.7767D+07     INFLOWS - OUTFLOWS =       -1685751.19
             --------                                   --------

 TOTAL STORAGE CHANGE =        3.5245D+07         STORAGE CHANGE =       -1698450.70
       --------------                             --------------
         LAND SURFACE =        3.3989D+07           LAND SURFACE =        -561684.68
            SOIL ZONE =        1.3820D+07              SOIL ZONE =        -403942.47
     UNSATURATED ZONE =        -774728.99       UNSATURATED ZONE =          33879.43
       SATURATED ZONE =       -1.3409D+07         SATURATED ZONE =        -163195.86
                LAKES =        1621037.37                  LAKES =        -603507.12

 OVERALL BUDGET ERROR =        2521721.23           BUDGET ERROR =          12699.51


  PERCENT DISCREPANCY =              1.37    PERCENT DISCREPANCY =              0.75



1
 SUMMARY VOLUMETRIC BUDGET FOR GSFLOW 
 DATE: 01 06 1981              CUMULATIVE TIME STEP:      98
 MODFLOW STRESS PERIOD      1     CURRENT TIME STEP:      98     ITERATIONS:      14

 -----------------------------------------------------------------------------------

   CUMULATIVE VOLUMES               L**3   RATES FOR THIS TIME STEP           L**3/T
   ------------------                      ------------------------

                                     IN                                         IN
                                     --                                         --
        PRECIPITATION =        2.0923D+08          PRECIPITATION =                  
           STREAMFLOW =                               STREAMFLOW =                  
     GW BOUNDARY FLOW =                         GW BOUNDARY FLOW =                  


                                    OUT                                        OUT
                                    ---                                        ---
   EVAPOTRANSPIRATION =        1.2563D+08     EVAPOTRANSPIRATION =        1141256.29
           STREAMFLOW =        3.2519D+07             STREAMFLOW =         445540.84
     GW BOUNDARY FLOW =                         GW BOUNDARY FLOW =                  

   INFLOWS - OUTFLOWS =        5.1081D+07     INFLOWS - OUTFLOWS =       -1586797.13
             --------                                   --------

 TOTAL STORAGE CHANGE =        4.8460D+07         STORAGE CHANGE =       -1620551.94
       --------------                             --------------
         LAND SURFACE =        3.9010D+07           LAND SURFACE =        -361344.25
            SOIL ZONE =        1.7030D+07              SOIL ZONE =        -582752.64
     UNSATURATED ZONE =        -189446.52       UNSATURATED ZONE =          81132.48
       SATURATED ZONE =       -1.3972D+07         SATURATED ZONE =        -219971.47
                LAKES =        6580633.90                  LAKES =        -537616.06

 OVERALL BUDGET ERROR =        2620943.29           BUDGET ERROR =          33754.81


  PERCENT DISCREPANCY =              1.26    PERCENT DISCREPANCY =              2.10



1
 SUMMARY VOLUMETRIC BUDGET FOR GSFLOW 
 DATE: 01 13 1981              CUMULATIVE TIME STEP:     105
 MODFLOW STRESS PERIOD      1     CURRENT TIME STEP:     105     ITERATIONS:       3

 -----------------------------------------------------------------------------------

   CUMULATIVE VOLUMES               L**3   RATES FOR THIS TIME STEP           L**3/T
   ------------------                      ------------------------

                                     IN                                         IN
                                     --                                         --
        PRECIPITATION =        2.1223D+08          PRECIPITATION =                  
           STREAMFLOW =                               STREAMFLOW =                  
     GW BOUNDARY FLOW =                         GW BOUNDARY FLOW =                  


                                    OUT                                        OUT
                                    ---                                        ---
   EVAPOTRANSPIRATION =        1.3396D+08     EVAPOTRANSPIRATION =        1403824.46
           STREAMFLOW =        3.5650D+07             STREAMFLOW =         457521.16
     GW BOUNDARY FLOW =                         GW BOUNDARY FLOW =                  

   INFLOWS - OUTFLOWS =        4.2614D+07     INFLOWS - OUTFLOWS =       -1861345.61
             --------                                   --------

 TOTAL STORAGE CHANGE =        3.9859D+07         STORAGE CHANGE =       -1870834.33
       --------------                             --------------
         LAND SURFACE =        3.7468D+07           LAND SURFACE =        -472696.79
            SOIL ZONE =        1.4431D+07              SOIL ZONE =        -520240.77
     UNSATURATED ZONE =          87673.57       UNSATURATED ZONE =          23796.01
       SATURATED ZONE =       -1.5264D+07         SATURATED ZONE =        -180159.41
                LAKES =        3136570.21                  LAKES =        -721533.38

 OVERALL BUDGET ERROR =        2755244.32           BUDGET ERROR =           9488.72


  PERCENT DISCREPANCY =              1.31    PERCENT DISCREPANCY =              0.51



1
 SUMMARY VOLUMETRIC BUDGET FOR GSFLOW 
 DATE: 01 20 1981              CUMULATIVE TIME STEP:     112
 MODFLOW STRESS PERIOD      1     CURRENT TIME STEP:     112     ITERATIONS:      12

 -----------------------------------------------------------------------------------

   CUMULATIVE VOLUMES               L**3   RATES FOR THIS TIME STEP           L**3/T
   ------------------                      ------------------------

                                     IN                                         IN
                                     --                                         --
        PRECIPITATION =        2.2423D+08          PRECIPITATION =        6001392.59
           STREAMFLOW =                               STREAMFLOW =                  
     GW BOUNDARY FLOW =                         GW BOUNDARY FLOW =                  


                                    OUT                                        OUT
                                    ---                                        ---
   EVAPOTRANSPIRATION =        1.4498D+08     EVAPOTRANSPIRATION =        1812032.77
           STREAMFLOW =        3.9241D+07             STREAMFLOW =         485521.72
     GW BOUNDARY FLOW =                         GW BOUNDARY FLOW =                  

   INFLOWS - OUTFLOWS =        4.0007D+07     INFLOWS - OUTFLOWS =        3703838.10
             --------                                   --------

 TOTAL STORAGE CHANGE =        3.7026D+07         STORAGE CHANGE =        3594716.36
       --------------                             --------------
         LAND SURFACE =        3.4618D+07           LAND SURFACE =         551847.56
            SOIL ZONE =        1.5991D+07              SOIL ZONE =        1363859.54
     UNSATURATED ZONE =         522367.86       UNSATURATED ZONE =         135779.00
       SATURATED ZONE =       -1.5904D+07         SATURATED ZONE =          85718.62
                LAKES =        1799938.98                  LAKES =        1457511.62

 OVERALL BUDGET ERROR =        2981125.78           BUDGET ERROR =         109121.74


  PERCENT DISCREPANCY =              1.34    PERCENT DISCREPANCY =              1.83



1
 SUMMARY VOLUMETRIC BUDGET FOR GSFLOW 
 DATE: 01 27 1981              CUMULATIVE TIME STEP:     119
 MODFLOW STRESS PERIOD      1     CURRENT TIME STEP:     119     ITERATIONS:      15

 -----------------------------------------------------------------------------------

   CUMULATIVE VOLUMES               L**3   RATES FOR THIS TIME STEP           L**3/T
   ------------------                      ------------------------

                                     IN                                         IN
                                     --                                         --
        PRECIPITATION =        3.3525D+08          PRECIPITATION =        6.0014D+07
           STREAMFLOW =                               STREAMFLOW =                  
     GW BOUNDARY FLOW =                         GW BOUNDARY FLOW =                  


                                    OUT                                        OUT
                                    ---                                        ---
   EVAPOTRANSPIRATION =        1.5407D+08     EVAPOTRANSPIRATION =         663125.29
           STREAMFLOW =        4.1752D+07             STREAMFLOW =         345811.31
     GW BOUNDARY FLOW =                         GW BOUNDARY FLOW =                  

   INFLOWS - OUTFLOWS =        1.3943D+08     INFLOWS - OUTFLOWS =        5.9005D+07
             --------                                   --------

 TOTAL STORAGE CHANGE =        1.3631D+08         STORAGE CHANGE =        5.8966D+07
       --------------                             --------------
         LAND SURFACE =        1.0380D+08           LAND SURFACE =        4.0704D+07
            SOIL ZONE =        1.8074D+07              SOIL ZONE =        1754160.10
     UNSATURATED ZONE =        1201235.11       UNSATURATED ZONE =         120399.08
       SATURATED ZONE =       -1.6481D+07         SATURATED ZONE =          78805.80
                LAKES =        2.9715D+07                  LAKES =        1.6308D+07

 OVERALL BUDGET ERROR =        3123990.60           BUDGET ERROR =          38881.35


  PERCENT DISCREPANCY =              0.94    PERCENT DISCREPANCY =              0.06



1
 SUMMARY VOLUMETRIC BUDGET FOR GSFLOW 
 DATE: 02 03 1981              CUMULATIVE TIME STEP:     126
 MODFLOW STRESS PERIOD      1     CURRENT TIME STEP:     126     ITERATIONS:      21

 -----------------------------------------------------------------------------------

   CUMULATIVE VOLUMES               L**3   RATES FOR THIS TIME STEP           L**3/T
   ------------------                      ------------------------

                                     IN                                         IN
                                     --                                         --
        PRECIPITATION =        4.0137D+08          PRECIPITATION =                  
           STREAMFLOW =                               STREAMFLOW =                  
     GW BOUNDARY FLOW =                         GW BOUNDARY FLOW =                  


                                    OUT                                        OUT
                                    ---                                        ---
   EVAPOTRANSPIRATION =        1.5769D+08     EVAPOTRANSPIRATION =         897749.75
           STREAMFLOW =        4.4232D+07             STREAMFLOW =         354891.78
     GW BOUNDARY FLOW =                         GW BOUNDARY FLOW =                  

   INFLOWS - OUTFLOWS =        1.9944D+08     INFLOWS - OUTFLOWS =       -1252641.53
             --------                                   --------

 TOTAL STORAGE CHANGE =        1.9654D+08         STORAGE CHANGE =       -1277460.59
       --------------                             --------------
         LAND SURFACE =        1.5000D+08           LAND SURFACE =        -514046.87
            SOIL ZONE =        1.7075D+07              SOIL ZONE =        -141383.34
     UNSATURATED ZONE =        1624569.22       UNSATURATED ZONE =          30791.21
       SATURATED ZONE =       -1.7719D+07         SATURATED ZONE =        -175666.81
                LAKES =        4.5560D+07                  LAKES =        -477154.78

 OVERALL BUDGET ERROR =        2906302.91           BUDGET ERROR =          24819.06


  PERCENT DISCREPANCY =              0.73    PERCENT DISCREPANCY =              1.96



1
 SUMMARY VOLUMETRIC BUDGET FOR GSFLOW 
 DATE: 02 10 1981              CUMULATIVE TIME STEP:     133
 MODFLOW STRESS PERIOD      1     CURRENT TIME STEP:     133     ITERATIONS:       3

 -----------------------------------------------------------------------------------

   CUMULATIVE VOLUMES               L**3   RATES FOR THIS TIME STEP           L**3/T
   ------------------                      ------------------------

                                     IN                                         IN
                                     --                                         --
        PRECIPITATION =        4.1375D+08          PRECIPITATION =        3095932.43
           STREAMFLOW =                               STREAMFLOW =                  
     GW BOUNDARY FLOW =                         GW BOUNDARY FLOW =                  


                                    OUT                                        OUT
                                    ---                                        ---
   EVAPOTRANSPIRATION =        1.6309D+08     EVAPOTRANSPIRATION =         577879.06
           STREAMFLOW =        4.6626D+07             STREAMFLOW =         340304.91
     GW BOUNDARY FLOW =                         GW BOUNDARY FLOW =                  

   INFLOWS - OUTFLOWS =        2.0403D+08     INFLOWS - OUTFLOWS =        2177748.46
             --------                                   --------

 TOTAL STORAGE CHANGE =        2.0099D+08         STORAGE CHANGE =        2149986.00
       --------------                             --------------
         LAND SURFACE =        1.5542D+08           LAND SURFACE =        1647975.59
            SOIL ZONE =        1.6988D+07              SOIL ZONE =         193620.59
     UNSATURATED ZONE =        1701793.62       UNSATURATED ZONE =           8209.01
       SATURATED ZONE =       -1.8826D+07         SATURATED ZONE =        -150562.53
                LAKES =        4.5711D+07                  LAKES =         450743.34

 OVERALL BUDGET ERROR =        3043755.23           BUDGET ERROR =          27762.46


  PERCENT DISCREPANCY =              0.74    PERCENT DISCREPANCY =              0.90



1
 SUMMARY VOLUMETRIC BUDGET FOR GSFLOW 
 DATE: 02 17 1981              CUMULATIVE TIME STEP:     140
 MODFLOW STRESS PERIOD      1     CURRENT TIME STEP:     140     ITERATIONS:      32

 -----------------------------------------------------------------------------------

   CUMULATIVE VOLUMES               L**3   RATES FOR THIS TIME STEP           L**3/T
   ------------------                      ------------------------

                                     IN                                         IN
                                     --                                         --
        PRECIPITATION =        4.6328D+08          PRECIPITATION =                  
           STREAMFLOW =                               STREAMFLOW =                  
     GW BOUNDARY FLOW =                         GW BOUNDARY FLOW =                  


                                    OUT                                        OUT
                                    ---                                        ---
   EVAPOTRANSPIRATION =        1.7438D+08     EVAPOTRANSPIRATION =        2612618.77
           STREAMFLOW =        4.8976D+07             STREAMFLOW =         285389.16
     GW BOUNDARY FLOW =                         GW BOUNDARY FLOW =                  

   INFLOWS - OUTFLOWS =        2.3992D+08     INFLOWS - OUTFLOWS =       -2898007.93
             --------                                   --------

 TOTAL STORAGE CHANGE =        2.3625D+08         STORAGE CHANGE =       -2957890.22
       --------------                             --------------
         LAND SURFACE =        1.6983D+08           LAND SURFACE =       -2316327.40
            SOIL ZONE =        2.3847D+07              SOIL ZONE =         -56463.06
     UNSATURATED ZONE =        2735783.63       UNSATURATED ZONE =         187345.03
       SATURATED ZONE =       -1.8916D+07         SATURATED ZONE =        -127188.04
                LAKES =        5.8754D+07                  LAKES =        -645256.75

 OVERALL BUDGET ERROR =        3668651.18           BUDGET ERROR =          59882.29


  PERCENT DISCREPANCY =              0.80    PERCENT DISCREPANCY =              2.05



1
 SUMMARY VOLUMETRIC BUDGET FOR GSFLOW 
 DATE: 02 24 1981              CUMULATIVE TIME STEP:     147
 MODFLOW STRESS PERIOD      1     CURRENT TIME STEP:     147     ITERATIONS:      15

 -----------------------------------------------------------------------------------

   CUMULATIVE VOLUMES               L**3   RATES FOR THIS TIME STEP           L**3/T
   ------------------                      ------------------------

                                     IN                                         IN
                                     --                                         --
        PRECIPITATION =        4.8805D+08          PRECIPITATION =        1.8576D+07
           STREAMFLOW =                               STREAMFLOW =                  
     GW BOUNDARY FLOW =                         GW BOUNDARY FLOW =                  


                                    OUT                                        OUT
                                    ---                                        ---
   EVAPOTRANSPIRATION =        1.8775D+08     EVAPOTRANSPIRATION =        1355053.68
           STREAMFLOW =        5.0060D+07             STREAMFLOW =         143123.89
     GW BOUNDARY FLOW =                         GW BOUNDARY FLOW =                  

   INFLOWS - OUTFLOWS =        2.5024D+08     INFLOWS - OUTFLOWS =        1.7077D+07
             --------                                   --------

 TOTAL STORAGE CHANGE =        2.4610D+08         STORAGE CHANGE =        1.7033D+07
       --------------                             --------------
         LAND SURFACE =        1.6962D+08           LAND SURFACE =        1.0824D+07
            SOIL ZONE =        2.6076D+07              SOIL ZONE =         470165.06
     UNSATURATED ZONE =        1558567.67       UNSATURATED ZONE =         343297.57
       SATURATED ZONE =       -1.7097D+07         SATURATED ZONE =          48407.72
                LAKES =        6.5947D+07                  LAKES =        5347858.50

 OVERALL BUDGET ERROR =        4137418.88           BUDGET ERROR =          43948.59


  PERCENT DISCREPANCY =              0.85    PERCENT DISCREPANCY =              0.24



1
 SUMMARY VOLUMETRIC BUDGET FOR GSFLOW 
 DATE: 03 03 1981              CUMULATIVE TIME STEP:     154
 MODFLOW STRESS PERIOD      1     CURRENT TIME STEP:     154     ITERATIONS:      16

 -----------------------------------------------------------------------------------

   CUMULATIVE VOLUMES               L**3   RATES FOR THIS TIME STEP           L**3/T
   ------------------                      ------------------------

                                     IN                                         IN
                                     --                                         --
        PRECIPITATION =        5.0056D+08          PRECIPITATION =                  
           STREAMFLOW =                               STREAMFLOW =                  
     GW BOUNDARY FLOW =                         GW BOUNDARY FLOW =                  


                                    OUT                                        OUT
                                    ---                                        ---
   EVAPOTRANSPIRATION =        1.9627D+08     EVAPOTRANSPIRATION =        2160699.05
           STREAMFLOW =        5.1106D+07             STREAMFLOW =         161574.77
     GW BOUNDARY FLOW =                         GW BOUNDARY FLOW =                  

   INFLOWS - OUTFLOWS =        2.5319D+08     INFLOWS - OUTFLOWS =       -2322273.81
             --------                                   --------

 TOTAL STORAGE CHANGE =        2.4887D+08         STORAGE CHANGE =       -2344899.87
       --------------                             --------------
         LAND SURFACE =        1.7232D+08           LAND SURFACE =       -1112915.94
            SOIL ZONE =        2.4192D+07              SOIL ZONE =        -375975.79
     UNSATURATED ZONE =        2526228.97       UNSATURATED ZONE =          66143.96
       SATURATED ZONE =       -1.8334D+07         SATURATED ZONE =        -179123.59
                LAKES =        6.8169D+07                  LAKES =        -743028.50

 OVERALL BUDGET ERROR =        4311858.29           BUDGET ERROR =          22626.06


  PERCENT DISCREPANCY =              0.87    PERCENT DISCREPANCY =              0.97



1
 SUMMARY VOLUMETRIC BUDGET FOR GSFLOW 
 DATE: 03 10 1981              CUMULATIVE TIME STEP:     161
 MODFLOW STRESS PERIOD      1     CURRENT TIME STEP:     161     ITERATIONS:      42

 -----------------------------------------------------------------------------------

   CUMULATIVE VOLUMES               L**3   RATES FOR THIS TIME STEP           L**3/T
   ------------------                      ------------------------

                                     IN                                         IN
                                     --                                         --
        PRECIPITATION =        5.0378D+08          PRECIPITATION =        3221591.34
           STREAMFLOW =                               STREAMFLOW =                  
     GW BOUNDARY FLOW =                         GW BOUNDARY FLOW =                  


                                    OUT                                        OUT
                                    ---                                        ---
   EVAPOTRANSPIRATION =        2.1334D+08     EVAPOTRANSPIRATION =        1910880.83
           STREAMFLOW =        5.2250D+07             STREAMFLOW =         163871.41
     GW BOUNDARY FLOW =                         GW BOUNDARY FLOW =                  

   INFLOWS - OUTFLOWS =        2.3819D+08     INFLOWS - OUTFLOWS =        1146839.09
             --------                                   --------

 TOTAL STORAGE CHANGE =        2.3367D+08         STORAGE CHANGE =        1114172.00
       --------------                             --------------
         LAND SURFACE =        1.5960D+08           LAND SURFACE =       -1847354.55
            SOIL ZONE =        2.4732D+07              SOIL ZONE =        1270303.16
     UNSATURATED ZONE =        2988874.88       UNSATURATED ZONE =         158857.14
       SATURATED ZONE =       -1.8856D+07         SATURATED ZONE =         135918.38
                LAKES =        6.5200D+07                  LAKES =        1396447.88

 OVERALL BUDGET ERROR =        4522132.42           BUDGET ERROR =          32667.10


  PERCENT DISCREPANCY =              0.90    PERCENT DISCREPANCY =              1.02



1
 SUMMARY VOLUMETRIC BUDGET FOR GSFLOW 
 DATE: 03 17 1981              CUMULATIVE TIME STEP:     168
 MODFLOW STRESS PERIOD      1     CURRENT TIME STEP:     168     ITERATIONS:      33

 -----------------------------------------------------------------------------------

   CUMULATIVE VOLUMES               L**3   RATES FOR THIS TIME STEP           L**3/T
   ------------------                      ------------------------

                                     IN                                         IN
                                     --                                         --
        PRECIPITATION =        5.1345D+08          PRECIPITATION =        3221591.34
           STREAMFLOW =                               STREAMFLOW =                  
     GW BOUNDARY FLOW =                         GW BOUNDARY FLOW =                  


                                    OUT                                        OUT
                                    ---                                        ---
   EVAPOTRANSPIRATION =        2.2791D+08     EVAPOTRANSPIRATION =        1041970.13
           STREAMFLOW =        5.3446D+07             STREAMFLOW =         174561.34
     GW BOUNDARY FLOW =                         GW BOUNDARY FLOW =                  

   INFLOWS - OUTFLOWS =        2.3209D+08     INFLOWS - OUTFLOWS =        2005059.86
             --------                                   --------

 TOTAL STORAGE CHANGE =        2.2743D+08         STORAGE CHANGE =        1980331.87
       --------------                             --------------
         LAND SURFACE =        1.5550D+08           LAND SURFACE =        1505005.36
            SOIL ZONE =        2.3801D+07              SOIL ZONE =          25483.60
     UNSATURATED ZONE =        3582428.49       UNSATURATED ZONE =        -103495.82
       SATURATED ZONE =       -1.9576D+07         SATURATED ZONE =           1909.67
                LAKES =        6.4120D+07                  LAKES =         551429.06

 OVERALL BUDGET ERROR =        4666643.51           BUDGET ERROR =          24727.99


  PERCENT DISCREPANCY =              0.91    PERCENT DISCREPANCY =              0.77



1
 SUMMARY VOLUMETRIC BUDGET FOR GSFLOW 
 DATE: 03 24 1981              CUMULATIVE TIME STEP:     175
 MODFLOW STRESS PERIOD      1     CURRENT TIME STEP:     175     ITERATIONS:      21

 -----------------------------------------------------------------------------------

   CUMULATIVE VOLUMES               L**3   RATES FOR THIS TIME STEP           L**3/T
   ------------------                      ------------------------

                                     IN                                         IN
                                     --                                         --
        PRECIPITATION =        5.7144D+08          PRECIPITATION =        6443182.67
           STREAMFLOW =                               STREAMFLOW =                  
     GW BOUNDARY FLOW =                         GW BOUNDARY FLOW =                  


                                    OUT                                        OUT
                                    ---                                        ---
   EVAPOTRANSPIRATION =        2.4182D+08     EVAPOTRANSPIRATION =        1710095.73
           STREAMFLOW =        5.4582D+07             STREAMFLOW =         164598.83
     GW BOUNDARY FLOW =                         GW BOUNDARY FLOW =                  

   INFLOWS - OUTFLOWS =        2.7504D+08     INFLOWS - OUTFLOWS =        4568488.11
             --------                                   --------

 TOTAL STORAGE CHANGE =        2.7012D+08         STORAGE CHANGE =        4530398.21
       --------------                             --------------
         LAND SURFACE =        1.8290D+08           LAND SURFACE =        1419532.73
            SOIL ZONE =        2.6095D+07              SOIL ZONE =         785260.73
     UNSATURATED ZONE =        4502954.05       UNSATURATED ZONE =         179240.74
       SATURATED ZONE =       -2.0015D+07         SATURATED ZONE =          90683.75
                LAKES =        7.6638D+07                  LAKES =        2055680.25

 OVERALL BUDGET ERROR =        4919970.66           BUDGET ERROR =          38089.90


  PERCENT DISCREPANCY =              0.86    PERCENT DISCREPANCY =              0.59



1
 SUMMARY VOLUMETRIC BUDGET FOR GSFLOW 
 DATE: 03 31 1981              CUMULATIVE TIME STEP:     182
 MODFLOW STRESS PERIOD      1     CURRENT TIME STEP:     182     ITERATIONS:      28

 -----------------------------------------------------------------------------------

   CUMULATIVE VOLUMES               L**3   RATES FOR THIS TIME STEP           L**3/T
   ------------------                      ------------------------

                                     IN                                         IN
                                     --                                         --
        PRECIPITATION =        6.3587D+08          PRECIPITATION =        6443182.67
           STREAMFLOW =                               STREAMFLOW =                  
     GW BOUNDARY FLOW =                         GW BOUNDARY FLOW =                  


                                    OUT                                        OUT
                                    ---                                        ---
   EVAPOTRANSPIRATION =        2.5632D+08     EVAPOTRANSPIRATION =        1135698.65
           STREAMFLOW =        5.5754D+07             STREAMFLOW =         154066.59
     GW BOUNDARY FLOW =                         GW BOUNDARY FLOW =                  

   INFLOWS - OUTFLOWS =        3.2380D+08     INFLOWS - OUTFLOWS =        5153417.43
             --------                                   --------

 TOTAL STORAGE CHANGE =        3.1888D+08         STORAGE CHANGE =        5114695.52
       --------------                             --------------
         LAND SURFACE =        2.0791D+08           LAND SURFACE =        2593093.39
            SOIL ZONE =        2.7738D+07              SOIL ZONE =         491047.37
     UNSATURATED ZONE =        1373791.11       UNSATURATED ZONE =         179738.57
       SATURATED ZONE =       -1.6478D+07         SATURATED ZONE =         -32575.19
                LAKES =        9.8332D+07                  LAKES =        1883391.38

 OVERALL BUDGET ERROR =        4917671.10           BUDGET ERROR =          38721.91


  PERCENT DISCREPANCY =              0.78    PERCENT DISCREPANCY =              0.60



1
 SUMMARY VOLUMETRIC BUDGET FOR GSFLOW 
 DATE: 04 07 1981              CUMULATIVE TIME STEP:     189
 MODFLOW STRESS PERIOD      1     CURRENT TIME STEP:     189     ITERATIONS:      49

 -----------------------------------------------------------------------------------

   CUMULATIVE VOLUMES               L**3   RATES FOR THIS TIME STEP           L**3/T
   ------------------                      ------------------------

                                     IN                                         IN
                                     --                                         --
        PRECIPITATION =        6.5328D+08          PRECIPITATION =                  
           STREAMFLOW =                               STREAMFLOW =                  
     GW BOUNDARY FLOW =                         GW BOUNDARY FLOW =                  


                                    OUT                                        OUT
                                    ---                                        ---
   EVAPOTRANSPIRATION =        2.7945D+08     EVAPOTRANSPIRATION =        4247288.63
           STREAMFLOW =        5.6884D+07             STREAMFLOW =         203682.59
     GW BOUNDARY FLOW =                         GW BOUNDARY FLOW =                  

   INFLOWS - OUTFLOWS =        3.1695D+08     INFLOWS - OUTFLOWS =       -4450971.23
             --------                                   --------

 TOTAL STORAGE CHANGE =        3.1176D+08         STORAGE CHANGE =       -4476511.68
       --------------                             --------------
         LAND SURFACE =        1.8629D+08           LAND SURFACE =       -6808850.16
            SOIL ZONE =        2.8275D+07              SOIL ZONE =         -13006.92
     UNSATURATED ZONE =        3312746.25       UNSATURATED ZONE =         340092.67
       SATURATED ZONE =       -1.5186D+07         SATURATED ZONE =         293820.09
                LAKES =        1.0907D+08                  LAKES =        1711432.62

 OVERALL BUDGET ERROR =        5187092.47           BUDGET ERROR =          25540.46


  PERCENT DISCREPANCY =              0.80    PERCENT DISCREPANCY =              0.57



1
 SUMMARY VOLUMETRIC BUDGET FOR GSFLOW 
 DATE: 04 14 1981              CUMULATIVE TIME STEP:     196
 MODFLOW STRESS PERIOD      1     CURRENT TIME STEP:     196     ITERATIONS:      37

 -----------------------------------------------------------------------------------

   CUMULATIVE VOLUMES               L**3   RATES FOR THIS TIME STEP           L**3/T
   ------------------                      ------------------------

                                     IN                                         IN
                                     --                                         --
        PRECIPITATION =        6.5328D+08          PRECIPITATION =                  
           STREAMFLOW =                               STREAMFLOW =                  
     GW BOUNDARY FLOW =                         GW BOUNDARY FLOW =                  


                                    OUT                                        OUT
                                    ---                                        ---
   EVAPOTRANSPIRATION =        3.0927D+08     EVAPOTRANSPIRATION =        5170980.96
           STREAMFLOW =        5.8130D+07             STREAMFLOW =         172000.22
     GW BOUNDARY FLOW =                         GW BOUNDARY FLOW =                  

   INFLOWS - OUTFLOWS =        2.8588D+08     INFLOWS - OUTFLOWS =       -5342981.18
             --------                                   --------

 TOTAL STORAGE CHANGE =        2.8048D+08         STORAGE CHANGE =       -5364494.81
       --------------                             --------------
         LAND SURFACE =        1.4105D+08           LAND SURFACE =       -7353372.32
            SOIL ZONE =        2.3823D+07              SOIL ZONE =        -905527.64
     UNSATURATED ZONE =        5309781.31       UNSATURATED ZONE =         248576.65
       SATURATED ZONE =       -1.3530D+07         SATURATED ZONE =         268813.25
                LAKES =        1.2384D+08                  LAKES =        2377015.25

 OVERALL BUDGET ERROR =        5395208.47           BUDGET ERROR =          21513.63


  PERCENT DISCREPANCY =              0.83    PERCENT DISCREPANCY =              0.40



1
 SUMMARY VOLUMETRIC BUDGET FOR GSFLOW 
 DATE: 04 21 1981              CUMULATIVE TIME STEP:     203
 MODFLOW STRESS PERIOD      1     CURRENT TIME STEP:     203     ITERATIONS:      53

 -----------------------------------------------------------------------------------

   CUMULATIVE VOLUMES               L**3   RATES FOR THIS TIME STEP           L**3/T
   ------------------                      ------------------------

                                     IN                                         IN
                                     --                                         --
        PRECIPITATION =        6.7418D+08          PRECIPITATION =                  
           STREAMFLOW =                               STREAMFLOW =                  
     GW BOUNDARY FLOW =                         GW BOUNDARY FLOW =                  


                                    OUT                                        OUT
                                    ---                                        ---
   EVAPOTRANSPIRATION =        3.3937D+08     EVAPOTRANSPIRATION =        5676348.58
           STREAMFLOW =        5.9345D+07             STREAMFLOW =         169579.17
     GW BOUNDARY FLOW =                         GW BOUNDARY FLOW =                  

   INFLOWS - OUTFLOWS =        2.7546D+08     INFLOWS - OUTFLOWS =       -5845927.75
             --------                                   --------

 TOTAL STORAGE CHANGE =        2.7013D+08         STORAGE CHANGE =       -5860377.50
       --------------                             --------------
         LAND SURFACE =        1.1854D+08           LAND SURFACE =       -3228226.29
            SOIL ZONE =        2.1951D+07              SOIL ZONE =       -2078812.25
     UNSATURATED ZONE =        6411444.30       UNSATURATED ZONE =          91425.83
       SATURATED ZONE =       -1.3332D+07         SATURATED ZONE =         -37104.91
                LAKES =        1.3656D+08                  LAKES =        -607659.88

 OVERALL BUDGET ERROR =        5334166.63           BUDGET ERROR =          14449.75


  PERCENT DISCREPANCY =              0.79    PERCENT DISCREPANCY =              0.25



1
 SUMMARY VOLUMETRIC BUDGET FOR GSFLOW 
 DATE: 04 28 1981              CUMULATIVE TIME STEP:     210
 MODFLOW STRESS PERIOD      1     CURRENT TIME STEP:     210     ITERATIONS:      47

 -----------------------------------------------------------------------------------

   CUMULATIVE VOLUMES               L**3   RATES FOR THIS TIME STEP           L**3/T
   ------------------                      ------------------------

                                     IN                                         IN
                                     --                                         --
        PRECIPITATION =        6.8114D+08          PRECIPITATION =                  
           STREAMFLOW =                               STREAMFLOW =                  
     GW BOUNDARY FLOW =                         GW BOUNDARY FLOW =                  


                                    OUT                                        OUT
                                    ---                                        ---
   EVAPOTRANSPIRATION =        3.8077D+08     EVAPOTRANSPIRATION =        5632408.02
           STREAMFLOW =        6.0557D+07             STREAMFLOW =         169029.37
     GW BOUNDARY FLOW =                         GW BOUNDARY FLOW =                  

   INFLOWS - OUTFLOWS =        2.3982D+08     INFLOWS - OUTFLOWS =       -5801437.40
             --------                                   --------

 TOTAL STORAGE CHANGE =        2.3444D+08         STORAGE CHANGE =       -5807930.45
       --------------                             --------------
         LAND SURFACE =        9.3061D+07           LAND SURFACE =       -4036144.09
            SOIL ZONE =        1.1922D+07              SOIL ZONE =       -1674234.20
     UNSATURATED ZONE =        6487458.24       UNSATURATED ZONE =         -36630.01
       SATURATED ZONE =       -1.3189D+07         SATURATED ZONE =         113975.75
                LAKES =        1.3616D+08                  LAKES =        -174897.91

 OVERALL BUDGET ERROR =        5376704.30           BUDGET ERROR =           6493.05


  PERCENT DISCREPANCY =              0.79    PERCENT DISCREPANCY =              0.11



1
 SUMMARY VOLUMETRIC BUDGET FOR GSFLOW 
 DATE: 05 05 1981              CUMULATIVE TIME STEP:     217
 MODFLOW STRESS PERIOD      1     CURRENT TIME STEP:     217     ITERATIONS:      69

 -----------------------------------------------------------------------------------

   CUMULATIVE VOLUMES               L**3   RATES FOR THIS TIME STEP           L**3/T
   ------------------                      ------------------------

                                     IN                                         IN
                                     --                                         --
        PRECIPITATION =        6.8811D+08          PRECIPITATION =                  
           STREAMFLOW =                               STREAMFLOW =                  
     GW BOUNDARY FLOW =                         GW BOUNDARY FLOW =                  


                                    OUT                                        OUT
                                    ---                                        ---
   EVAPOTRANSPIRATION =        4.1880D+08     EVAPOTRANSPIRATION =        3777346.84
           STREAMFLOW =        6.1775D+07             STREAMFLOW =         173796.00
     GW BOUNDARY FLOW =                         GW BOUNDARY FLOW =                  

   INFLOWS - OUTFLOWS =        2.0754D+08     INFLOWS - OUTFLOWS =       -3951142.84
             --------                                   --------

 TOTAL STORAGE CHANGE =        2.0215D+08         STORAGE CHANGE =       -3949431.75
       --------------                             --------------
         LAND SURFACE =        6.7797D+07           LAND SURFACE =       -2954584.90
            SOIL ZONE =        5253805.27              SOIL ZONE =        -920964.38
     UNSATURATED ZONE =        5121404.49       UNSATURATED ZONE =         -70832.19
       SATURATED ZONE =       -1.2255D+07         SATURATED ZONE =         -12600.44
                LAKES =        1.3623D+08                  LAKES =           9550.16

 OVERALL BUDGET ERROR =        5386938.46           BUDGET ERROR =          -1711.08


  PERCENT DISCREPANCY =              0.79    PERCENT DISCREPANCY =             -0.04



1
 SUMMARY VOLUMETRIC BUDGET FOR GSFLOW 
 DATE: 05 12 1981              CUMULATIVE TIME STEP:     224
 MODFLOW STRESS PERIOD      1     CURRENT TIME STEP:     224     ITERATIONS:      62

 -----------------------------------------------------------------------------------

   CUMULATIVE VOLUMES               L**3   RATES FOR THIS TIME STEP           L**3/T
   ------------------                      ------------------------

                                     IN                                         IN
                                     --                                         --
        PRECIPITATION =        6.8811D+08          PRECIPITATION =                  
           STREAMFLOW =                               STREAMFLOW =                  
     GW BOUNDARY FLOW =                         GW BOUNDARY FLOW =                  


                                    OUT                                        OUT
                                    ---                                        ---
   EVAPOTRANSPIRATION =        4.4716D+08     EVAPOTRANSPIRATION =        4487079.56
           STREAMFLOW =        6.2972D+07             STREAMFLOW =         168853.17
     GW BOUNDARY FLOW =                         GW BOUNDARY FLOW =                  

   INFLOWS - OUTFLOWS =        1.7798D+08     INFLOWS - OUTFLOWS =       -4655932.73
             --------                                   --------

 TOTAL STORAGE CHANGE =        1.7259D+08         STORAGE CHANGE =       -4650726.02
       --------------                             --------------
         LAND SURFACE =        4.4652D+07           LAND SURFACE =       -3401591.14
            SOIL ZONE =       -1386545.91              SOIL ZONE =        -952962.10
     UNSATURATED ZONE =        2960167.48       UNSATURATED ZONE =        -839268.50
       SATURATED ZONE =       -1.0895D+07         SATURATED ZONE =         540365.75
                LAKES =        1.3726D+08                  LAKES =           2729.97

 OVERALL BUDGET ERROR =        5386383.71           BUDGET ERROR =          -5206.71


  PERCENT DISCREPANCY =              0.79    PERCENT DISCREPANCY =             -0.11



1
 SUMMARY VOLUMETRIC BUDGET FOR GSFLOW 
 DATE: 05 19 1981              CUMULATIVE TIME STEP:     231
 MODFLOW STRESS PERIOD      1     CURRENT TIME STEP:     231     ITERATIONS:      43

 -----------------------------------------------------------------------------------

   CUMULATIVE VOLUMES               L**3   RATES FOR THIS TIME STEP           L**3/T
   ------------------                      ------------------------

                                     IN                                         IN
                                     --                                         --
        PRECIPITATION =        7.4671D+08          PRECIPITATION =        3447112.78
           STREAMFLOW =                               STREAMFLOW =                  
     GW BOUNDARY FLOW =                         GW BOUNDARY FLOW =                  


                                    OUT                                        OUT
                                    ---                                        ---
   EVAPOTRANSPIRATION =        4.6525D+08     EVAPOTRANSPIRATION =        1758755.66
           STREAMFLOW =        6.4162D+07             STREAMFLOW =         172527.06
     GW BOUNDARY FLOW =                         GW BOUNDARY FLOW =                  

   INFLOWS - OUTFLOWS =        2.1730D+08     INFLOWS - OUTFLOWS =        1515830.06
             --------                                   --------

 TOTAL STORAGE CHANGE =        2.1204D+08         STORAGE CHANGE =        1509847.14
       --------------                             --------------
         LAND SURFACE =        4.8302D+07           LAND SURFACE =       -3469349.29
            SOIL ZONE =        1.0091D+07              SOIL ZONE =        2136407.64
     UNSATURATED ZONE =        2779717.46       UNSATURATED ZONE =         -16799.22
       SATURATED ZONE =       -1.0430D+07         SATURATED ZONE =          69727.00
                LAKES =        1.6130D+08                  LAKES =        2789861.00

 OVERALL BUDGET ERROR =        5257162.44           BUDGET ERROR =           5982.92


  PERCENT DISCREPANCY =              0.71    PERCENT DISCREPANCY =              0.17



1
 SUMMARY VOLUMETRIC BUDGET FOR GSFLOW 
 DATE: 05 26 1981              CUMULATIVE TIME STEP:     238
 MODFLOW STRESS PERIOD      1     CURRENT TIME STEP:     238     ITERATIONS:      16

 -----------------------------------------------------------------------------------

   CUMULATIVE VOLUMES               L**3   RATES FOR THIS TIME STEP           L**3/T
   ------------------                      ------------------------

                                     IN                                         IN
                                     --                                         --
        PRECIPITATION =        7.7429D+08          PRECIPITATION =        1.7236D+07
           STREAMFLOW =                               STREAMFLOW =                  
     GW BOUNDARY FLOW =                         GW BOUNDARY FLOW =                  


                                    OUT                                        OUT
                                    ---                                        ---
   EVAPOTRANSPIRATION =        4.9677D+08     EVAPOTRANSPIRATION =        2648209.58
           STREAMFLOW =        6.5363D+07             STREAMFLOW =         180466.05
     GW BOUNDARY FLOW =                         GW BOUNDARY FLOW =                  

   INFLOWS - OUTFLOWS =        2.1215D+08     INFLOWS - OUTFLOWS =        1.4407D+07
             --------                                   --------

 TOTAL STORAGE CHANGE =        2.0642D+08         STORAGE CHANGE =        1.4239D+07
       --------------                             --------------
         LAND SURFACE =        3.1890D+07           LAND SURFACE =        -275022.79
            SOIL ZONE =        8659810.37              SOIL ZONE =        4715782.45
     UNSATURATED ZONE =        2604231.99       UNSATURATED ZONE =          12418.09
       SATURATED ZONE =       -9975280.60         SATURATED ZONE =         557625.56
                LAKES =        1.7324D+08                  LAKES =        9228271.00

 OVERALL BUDGET ERROR =        5733753.66           BUDGET ERROR =         167813.71


  PERCENT DISCREPANCY =              0.74    PERCENT DISCREPANCY =              0.98



1
 SUMMARY VOLUMETRIC BUDGET FOR GSFLOW 
 DATE: 06 02 1981              CUMULATIVE TIME STEP:     245
 MODFLOW STRESS PERIOD      1     CURRENT TIME STEP:     245     ITERATIONS:      67

 -----------------------------------------------------------------------------------

   CUMULATIVE VOLUMES               L**3   RATES FOR THIS TIME STEP           L**3/T
   ------------------                      ------------------------

                                     IN                                         IN
                                     --                                         --
        PRECIPITATION =        7.7429D+08          PRECIPITATION =                  
           STREAMFLOW =                               STREAMFLOW =                  
     GW BOUNDARY FLOW =                         GW BOUNDARY FLOW =                  


                                    OUT                                        OUT
                                    ---                                        ---
   EVAPOTRANSPIRATION =        5.3770D+08     EVAPOTRANSPIRATION =        5802659.68
           STREAMFLOW =        6.6583D+07             STREAMFLOW =         178725.95
     GW BOUNDARY FLOW =                         GW BOUNDARY FLOW =                  

   INFLOWS - OUTFLOWS =        1.7001D+08     INFLOWS - OUTFLOWS =       -5981385.63
             --------                                   --------

 TOTAL STORAGE CHANGE =        1.6426D+08         STORAGE CHANGE =       -5982052.73
       --------------                             --------------
         LAND SURFACE =        1.9162D+07           LAND SURFACE =       -1524432.06
            SOIL ZONE =       -7613457.27              SOIL ZONE =       -1966464.76
     UNSATURATED ZONE =       -1989508.43       UNSATURATED ZONE =        -125682.57
       SATURATED ZONE =       -8398913.34         SATURATED ZONE =        -221432.59
                LAKES =        1.6310D+08                  LAKES =       -2144040.75

 OVERALL BUDGET ERROR =        5742819.25           BUDGET ERROR =            667.10


  PERCENT DISCREPANCY =              0.74    PERCENT DISCREPANCY =              0.01



1
 SUMMARY VOLUMETRIC BUDGET FOR GSFLOW 
 DATE: 06 09 1981              CUMULATIVE TIME STEP:     252
 MODFLOW STRESS PERIOD      1     CURRENT TIME STEP:     252     ITERATIONS:      50

 -----------------------------------------------------------------------------------

   CUMULATIVE VOLUMES               L**3   RATES FOR THIS TIME STEP           L**3/T
   ------------------                      ------------------------

                                     IN                                         IN
                                     --                                         --
        PRECIPITATION =        7.7752D+08          PRECIPITATION =                  
           STREAMFLOW =                               STREAMFLOW =                  
     GW BOUNDARY FLOW =                         GW BOUNDARY FLOW =                  


                                    OUT                                        OUT
                                    ---                                        ---
   EVAPOTRANSPIRATION =        5.7452D+08     EVAPOTRANSPIRATION =        5413486.35
           STREAMFLOW =        6.7827D+07             STREAMFLOW =         203133.83
     GW BOUNDARY FLOW =                         GW BOUNDARY FLOW =                  

   INFLOWS - OUTFLOWS =        1.3518D+08     INFLOWS - OUTFLOWS =       -5616620.18
             --------                                   --------

 TOTAL STORAGE CHANGE =        1.2944D+08         STORAGE CHANGE =       -5610885.82
       --------------                             --------------
         LAND SURFACE =        9796535.79           LAND SURFACE =        -964195.82
            SOIL ZONE =       -1.8502D+07              SOIL ZONE =       -1819622.86
     UNSATURATED ZONE =       -2818883.74       UNSATURATED ZONE =        -126108.13
       SATURATED ZONE =       -9630137.02         SATURATED ZONE =        -221245.77
                LAKES =        1.5059D+08                  LAKES =       -2479713.25

 OVERALL BUDGET ERROR =        5736038.98           BUDGET ERROR =          -5734.36


  PERCENT DISCREPANCY =              0.74    PERCENT DISCREPANCY =             -0.10



1
 SUMMARY VOLUMETRIC BUDGET FOR GSFLOW 
 DATE: 06 16 1981              CUMULATIVE TIME STEP:     259
 MODFLOW STRESS PERIOD      1     CURRENT TIME STEP:     259     ITERATIONS:      25

 -----------------------------------------------------------------------------------

   CUMULATIVE VOLUMES               L**3   RATES FOR THIS TIME STEP           L**3/T
   ------------------                      ------------------------

                                     IN                                         IN
                                     --                                         --
        PRECIPITATION =        7.7752D+08          PRECIPITATION =                  
           STREAMFLOW =                               STREAMFLOW =                  
     GW BOUNDARY FLOW =                         GW BOUNDARY FLOW =                  


                                    OUT                                        OUT
                                    ---                                        ---
   EVAPOTRANSPIRATION =        6.0221D+08     EVAPOTRANSPIRATION =        4685242.76
           STREAMFLOW =        7.0935D+07             STREAMFLOW =         702199.94
     GW BOUNDARY FLOW =                         GW BOUNDARY FLOW =                  

   INFLOWS - OUTFLOWS =        1.0437D+08     INFLOWS - OUTFLOWS =       -5387442.69
             --------                                   --------

 TOTAL STORAGE CHANGE =        9.8621D+07         STORAGE CHANGE =       -5383071.63
[...]
           STREAMFLOW =        1.6168D+09             STREAMFLOW =        4966705.50
     GW BOUNDARY FLOW =                         GW BOUNDARY FLOW =                  

   INFLOWS - OUTFLOWS =        1.0335D+09     INFLOWS - OUTFLOWS =        1138233.46
             --------                                   --------

 TOTAL STORAGE CHANGE =        1.0035D+09         STORAGE CHANGE =        1112191.84
       --------------                             --------------
         LAND SURFACE =        3.3540D+08           LAND SURFACE =        4606953.51
            SOIL ZONE =        5172448.43              SOIL ZONE =         -72228.74
     UNSATURATED ZONE =        1015797.64       UNSATURATED ZONE =          14254.38
       SATURATED ZONE =       -5.4718D+07         SATURATED ZONE =        -158668.30
                LAKES =        7.1662D+08                  LAKES =       -3278119.00

 OVERALL BUDGET ERROR =        3.0038D+07           BUDGET ERROR =          26041.62


  PERCENT DISCREPANCY =              0.54    PERCENT DISCREPANCY =              0.40



1
 SUMMARY VOLUMETRIC BUDGET FOR GSFLOW 
 DATE: 12 06 1983              CUMULATIVE TIME STEP:    1162
 MODFLOW STRESS PERIOD      1     CURRENT TIME STEP:    1162     ITERATIONS:       3

 -----------------------------------------------------------------------------------

   CUMULATIVE VOLUMES               L**3   RATES FOR THIS TIME STEP           L**3/T
   ------------------                      ------------------------

                                     IN                                         IN
                                     --                                         --
        PRECIPITATION =        5.6038D+09          PRECIPITATION =        3198161.89
           STREAMFLOW =                               STREAMFLOW =                  
     GW BOUNDARY FLOW =                         GW BOUNDARY FLOW =                  


                                    OUT                                        OUT
                                    ---                                        ---
   EVAPOTRANSPIRATION =        2.8996D+09     EVAPOTRANSPIRATION =         185753.35
           STREAMFLOW =        1.6522D+09             STREAMFLOW =        5064639.00
     GW BOUNDARY FLOW =                         GW BOUNDARY FLOW =                  

   INFLOWS - OUTFLOWS =        1.0520D+09     INFLOWS - OUTFLOWS =       -2052230.45
             --------                                   --------

 TOTAL STORAGE CHANGE =        1.0217D+09         STORAGE CHANGE =       -2065578.40
       --------------                             --------------
         LAND SURFACE =        3.7376D+08           LAND SURFACE =        2296320.51
            SOIL ZONE =        5739418.39              SOIL ZONE =        -130613.53
     UNSATURATED ZONE =        1301225.17       UNSATURATED ZONE =          28787.01
       SATURATED ZONE =       -5.5750D+07         SATURATED ZONE =        -165719.14
                LAKES =        6.9667D+08                  LAKES =       -4094353.25

 OVERALL BUDGET ERROR =        3.0256D+07           BUDGET ERROR =          13347.95


  PERCENT DISCREPANCY =              0.54    PERCENT DISCREPANCY =              0.25



1
 SUMMARY VOLUMETRIC BUDGET FOR GSFLOW 
 DATE: 12 13 1983              CUMULATIVE TIME STEP:    1169
 MODFLOW STRESS PERIOD      1     CURRENT TIME STEP:    1169     ITERATIONS:      13

 -----------------------------------------------------------------------------------

   CUMULATIVE VOLUMES               L**3   RATES FOR THIS TIME STEP           L**3/T
   ------------------                      ------------------------

                                     IN                                         IN
                                     --                                         --
        PRECIPITATION =        5.6998D+09          PRECIPITATION =        9594484.95
           STREAMFLOW =                               STREAMFLOW =                  
     GW BOUNDARY FLOW =                         GW BOUNDARY FLOW =                  


                                    OUT                                        OUT
                                    ---                                        ---
   EVAPOTRANSPIRATION =        2.9033D+09     EVAPOTRANSPIRATION =         226495.95
           STREAMFLOW =        1.6892D+09             STREAMFLOW =        5260512.00
     GW BOUNDARY FLOW =                         GW BOUNDARY FLOW =                  

   INFLOWS - OUTFLOWS =        1.1072D+09     INFLOWS - OUTFLOWS =        4107477.00
             --------                                   --------

 TOTAL STORAGE CHANGE =        1.0767D+09         STORAGE CHANGE =        4075715.51
       --------------                             --------------
         LAND SURFACE =        4.3778D+08           LAND SURFACE =        7019560.16
            SOIL ZONE =        6983699.17              SOIL ZONE =        -182874.95
     UNSATURATED ZONE =        1689200.00       UNSATURATED ZONE =          36266.13
       SATURATED ZONE =       -5.6390D+07         SATURATED ZONE =        -172587.33
                LAKES =        6.8660D+08                  LAKES =       -2624648.50

 OVERALL BUDGET ERROR =        3.0554D+07           BUDGET ERROR =          31761.49


  PERCENT DISCREPANCY =              0.54    PERCENT DISCREPANCY =              0.33



1
 SUMMARY VOLUMETRIC BUDGET FOR GSFLOW 
 DATE: 12 20 1983              CUMULATIVE TIME STEP:    1176
 MODFLOW STRESS PERIOD      1     CURRENT TIME STEP:    1176     ITERATIONS:       7

 -----------------------------------------------------------------------------------

   CUMULATIVE VOLUMES               L**3   RATES FOR THIS TIME STEP           L**3/T
   ------------------                      ------------------------

                                     IN                                         IN
                                     --                                         --
        PRECIPITATION =        5.7158D+09          PRECIPITATION =                  
           STREAMFLOW =                               STREAMFLOW =                  
     GW BOUNDARY FLOW =                         GW BOUNDARY FLOW =                  


                                    OUT                                        OUT
                                    ---                                        ---
   EVAPOTRANSPIRATION =        2.9112D+09     EVAPOTRANSPIRATION =         347251.90
           STREAMFLOW =        1.7277D+09             STREAMFLOW =        5578472.50
     GW BOUNDARY FLOW =                         GW BOUNDARY FLOW =                  

   INFLOWS - OUTFLOWS =        1.0769D+09     INFLOWS - OUTFLOWS =       -5925724.40
             --------                                   --------

 TOTAL STORAGE CHANGE =        1.0459D+09         STORAGE CHANGE =       -5948862.50
       --------------                             --------------
         LAND SURFACE =        4.4092D+08           LAND SURFACE =        -229898.36
            SOIL ZONE =        7720704.13              SOIL ZONE =        -180987.84
     UNSATURATED ZONE =        2179161.31       UNSATURATED ZONE =          31601.39
       SATURATED ZONE =       -5.7376D+07         SATURATED ZONE =        -168433.69
                LAKES =        6.5248D+08                  LAKES =       -5401144.00

 OVERALL BUDGET ERROR =        3.0952D+07           BUDGET ERROR =          23138.09


  PERCENT DISCREPANCY =              0.54    PERCENT DISCREPANCY =              0.39



1
 SUMMARY VOLUMETRIC BUDGET FOR GSFLOW 
 DATE: 12 27 1983              CUMULATIVE TIME STEP:    1183
 MODFLOW STRESS PERIOD      1     CURRENT TIME STEP:    1183     ITERATIONS:      28

 -----------------------------------------------------------------------------------

   CUMULATIVE VOLUMES               L**3   RATES FOR THIS TIME STEP           L**3/T
   ------------------                      ------------------------

                                     IN                                         IN
                                     --                                         --
        PRECIPITATION =        5.8917D+09          PRECIPITATION =        9594484.95
           STREAMFLOW =                               STREAMFLOW =                  
     GW BOUNDARY FLOW =                         GW BOUNDARY FLOW =                  


                                    OUT                                        OUT
                                    ---                                        ---
   EVAPOTRANSPIRATION =        2.9134D+09     EVAPOTRANSPIRATION =         396893.17
           STREAMFLOW =        1.7667D+09             STREAMFLOW =        5677393.00
     GW BOUNDARY FLOW =                         GW BOUNDARY FLOW =                  

   INFLOWS - OUTFLOWS =        1.2115D+09     INFLOWS - OUTFLOWS =        3520198.78
             --------                                   --------

 TOTAL STORAGE CHANGE =        1.1803D+09         STORAGE CHANGE =        3462251.62
       --------------                             --------------
         LAND SURFACE =        5.6571D+08           LAND SURFACE =        5841371.54
            SOIL ZONE =        8455218.42              SOIL ZONE =         228118.10
     UNSATURATED ZONE =        2451203.90       UNSATURATED ZONE =          89351.56
       SATURATED ZONE =       -5.7978D+07         SATURATED ZONE =         -80673.59
                LAKES =        6.6166D+08                  LAKES =       -2615916.00

 OVERALL BUDGET ERROR =        3.1237D+07           BUDGET ERROR =          57947.16


  PERCENT DISCREPANCY =              0.53    PERCENT DISCREPANCY =              0.61



1
 SUMMARY VOLUMETRIC BUDGET FOR GSFLOW 
 DATE: 01 03 1984              CUMULATIVE TIME STEP:    1190
 MODFLOW STRESS PERIOD      1     CURRENT TIME STEP:    1190     ITERATIONS:       6

 -----------------------------------------------------------------------------------

   CUMULATIVE VOLUMES               L**3   RATES FOR THIS TIME STEP           L**3/T
   ------------------                      ------------------------

                                     IN                                         IN
                                     --                                         --
        PRECIPITATION =        5.9235D+09          PRECIPITATION =                  
           STREAMFLOW =                               STREAMFLOW =                  
     GW BOUNDARY FLOW =                         GW BOUNDARY FLOW =                  


                                    OUT                                        OUT
                                    ---                                        ---
   EVAPOTRANSPIRATION =        2.9198D+09     EVAPOTRANSPIRATION =        1449142.67
           STREAMFLOW =        1.8063D+09             STREAMFLOW =        5603065.50
     GW BOUNDARY FLOW =                         GW BOUNDARY FLOW =                  

   INFLOWS - OUTFLOWS =        1.1973D+09     INFLOWS - OUTFLOWS =       -7052208.17
             --------                                   --------

 TOTAL STORAGE CHANGE =        1.1657D+09         STORAGE CHANGE =       -7078023.81
       --------------                             --------------
         LAND SURFACE =        5.7870D+08           LAND SURFACE =        -976138.39
            SOIL ZONE =        9167068.76              SOIL ZONE =        -187157.87
     UNSATURATED ZONE =        3006515.40       UNSATURATED ZONE =          42516.64
       SATURATED ZONE =       -5.8841D+07         SATURATED ZONE =        -191852.19
                LAKES =        6.3370D+08                  LAKES =       -5765392.00

 OVERALL BUDGET ERROR =        3.1614D+07           BUDGET ERROR =          25815.64


  PERCENT DISCREPANCY =              0.54    PERCENT DISCREPANCY =              0.37



1
 SUMMARY VOLUMETRIC BUDGET FOR GSFLOW 
 DATE: 01 10 1984              CUMULATIVE TIME STEP:    1197
 MODFLOW STRESS PERIOD      1     CURRENT TIME STEP:    1197     ITERATIONS:      17

 -----------------------------------------------------------------------------------

   CUMULATIVE VOLUMES               L**3   RATES FOR THIS TIME STEP           L**3/T
   ------------------                      ------------------------

                                     IN                                         IN
                                     --                                         --
        PRECIPITATION =        5.9235D+09          PRECIPITATION =                  
           STREAMFLOW =                               STREAMFLOW =                  
     GW BOUNDARY FLOW =                         GW BOUNDARY FLOW =                  


                                    OUT                                        OUT
                                    ---                                        ---
   EVAPOTRANSPIRATION =        2.9322D+09     EVAPOTRANSPIRATION =        1728133.10
           STREAMFLOW =        1.8438D+09             STREAMFLOW =        5235932.00
     GW BOUNDARY FLOW =                         GW BOUNDARY FLOW =                  

   INFLOWS - OUTFLOWS =        1.1475D+09     INFLOWS - OUTFLOWS =       -6964065.10
             --------                                   --------

 TOTAL STORAGE CHANGE =        1.1157D+09         STORAGE CHANGE =       -6995000.83
       --------------                             --------------
         LAND SURFACE =        5.6643D+08           LAND SURFACE =       -2016428.22
            SOIL ZONE =        1.0289D+07              SOIL ZONE =         296376.02
     UNSATURATED ZONE =        3344185.56       UNSATURATED ZONE =          66929.64
       SATURATED ZONE =       -5.9594D+07         SATURATED ZONE =         -56087.27
                LAKES =        5.9519D+08                  LAKES =       -5285791.00

 OVERALL BUDGET ERROR =        3.1817D+07           BUDGET ERROR =          30935.73


  PERCENT DISCREPANCY =              0.54    PERCENT DISCREPANCY =              0.44



1
 SUMMARY VOLUMETRIC BUDGET FOR GSFLOW 
 DATE: 01 17 1984              CUMULATIVE TIME STEP:    1204
 MODFLOW STRESS PERIOD      1     CURRENT TIME STEP:    1204     ITERATIONS:       3

 -----------------------------------------------------------------------------------

   CUMULATIVE VOLUMES               L**3   RATES FOR THIS TIME STEP           L**3/T
   ------------------                      ------------------------

                                     IN                                         IN
                                     --                                         --
        PRECIPITATION =        5.9475D+09          PRECIPITATION =                  
           STREAMFLOW =                               STREAMFLOW =                  
     GW BOUNDARY FLOW =                         GW BOUNDARY FLOW =                  


                                    OUT                                        OUT
                                    ---                                        ---
   EVAPOTRANSPIRATION =        2.9360D+09     EVAPOTRANSPIRATION =         514396.10
           STREAMFLOW =        1.8795D+09             STREAMFLOW =        5015583.00
     GW BOUNDARY FLOW =                         GW BOUNDARY FLOW =                  

   INFLOWS - OUTFLOWS =        1.1320D+09     INFLOWS - OUTFLOWS =       -5529979.10
             --------                                   --------

 TOTAL STORAGE CHANGE =        1.1001D+09         STORAGE CHANGE =       -5542974.36
       --------------                             --------------
         LAND SURFACE =        5.8186D+08           LAND SURFACE =        -369940.34
            SOIL ZONE =        9284326.78              SOIL ZONE =        -101254.36
     UNSATURATED ZONE =        3426325.08       UNSATURATED ZONE =          -4478.01
       SATURATED ZONE =       -6.0636D+07         SATURATED ZONE =        -153490.16
                LAKES =        5.6621D+08                  LAKES =       -4913811.50

 OVERALL BUDGET ERROR =        3.1859D+07           BUDGET ERROR =          12995.26


  PERCENT DISCREPANCY =              0.54    PERCENT DISCREPANCY =              0.23



1
 SUMMARY VOLUMETRIC BUDGET FOR GSFLOW 
 DATE: 01 24 1984              CUMULATIVE TIME STEP:    1211
 MODFLOW STRESS PERIOD      1     CURRENT TIME STEP:    1211     ITERATIONS:       2

 -----------------------------------------------------------------------------------

   CUMULATIVE VOLUMES               L**3   RATES FOR THIS TIME STEP           L**3/T
   ------------------                      ------------------------

                                     IN                                         IN
                                     --                                         --
        PRECIPITATION =        5.9535D+09          PRECIPITATION =                  
           STREAMFLOW =                               STREAMFLOW =                  
     GW BOUNDARY FLOW =                         GW BOUNDARY FLOW =                  


                                    OUT                                        OUT
                                    ---                                        ---
   EVAPOTRANSPIRATION =        2.9414D+09     EVAPOTRANSPIRATION =        1048493.82
           STREAMFLOW =        1.9143D+09             STREAMFLOW =        4917688.50
     GW BOUNDARY FLOW =                         GW BOUNDARY FLOW =                  

   INFLOWS - OUTFLOWS =        1.0978D+09     INFLOWS - OUTFLOWS =       -5966182.32
             --------                                   --------

 TOTAL STORAGE CHANGE =        1.0659D+09         STORAGE CHANGE =       -5976059.58
       --------------                             --------------
         LAND SURFACE =        5.8317D+08           LAND SURFACE =        -583964.56
            SOIL ZONE =        8743962.45              SOIL ZONE =         -66945.56
     UNSATURATED ZONE =        3235836.82       UNSATURATED ZONE =         -34423.91
       SATURATED ZONE =       -6.1646D+07         SATURATED ZONE =        -148133.55
                LAKES =        5.3235D+08                  LAKES =       -5142592.00

 OVERALL BUDGET ERROR =        3.1949D+07           BUDGET ERROR =           9877.26


  PERCENT DISCREPANCY =              0.54    PERCENT DISCREPANCY =              0.17



 Number of time steps:   1217;  Number of non-convergence:   0
 MF iterations:         22742;  SZ iterations:           22783
 Average MF iterations: 18.69;  Average SZ iterations:   18.72
 Maximum MF iterations:   138;  Maximum SZ iterations:     138

MF iteration distribution:      0   26   75   91   76   40   37   44   45   32
                               33   41   56   48   24   34   14   16   31   21
                               23   23   17   17   16   23   12   15   24   14
                               22   11   15    8   35    7   19    3   10    6
                                9    9    8    7    2    6    3    5    7   10
                                2    9    2    6    2    0    0    1    2    1
                                1    2    1    2    0    0    2    1    2    3
                                0    1    0    0    1    0    0    0    0    6

SZ computation distribution:    0   24   77   90   77   39   37   44   45   32
                               34   35   61   44   27   30   19   17   24   26
                               24   23   18   17   16   23   12   15   24   14
                               22   11   15    8   35    7   19    3   10    6
                                9    9    8    7    2    6    3    5    6   11
                                2    9    2    6    2    0    0    1    2    1
                                1    2    1    2    0    0    2    1    2    3
                                0    1    0    0    1    0    0    0    0    6

