==========================================================================
Command line: 
..\..\bin\gsflow  .\control\control

number of command line words: 2

Executable: ..\..\bin\gsflow

==========================================================================
Control File: .\control\control
==========================================================================

                          U.S. Geological Survey
        Coupled Groundwater and Surface-water FLOW model (GSFLOW)
                         Version: 2.4.0 09/01/2024

    An integration of the Precipitation-Runoff Modeling System (PRMS)
    and the Modular Groundwater Model (MODFLOW-NWT and MODFLOW-2005)



               Precipitation-Runoff Modeling System (PRMS)
                       Version 6.0.0 09/01/2024

--------------------------------------------------------------------
        Process            Available Modules
--------------------------------------------------------------------
  Basin Definition: basin
    Cascading Flow: cascade
  Time Series Data: obs, water_use_read, dynamic_param_read
                    dynamic_soil_param_read
   Potet Solar Rad: soltab
  Temperature Dist: temp_1sta, temp_laps, temp_dist2, climate_hru,
                    temp_map
       Precip Dist: precip_1sta, precip_laps, precip_dist2,
                    climate_hru, precip_map
Temp & Precip Dist: xyz_dist, ide_dist
    Solar Rad Dist: ccsolrad, ddsolrad, climate_hru
Transpiration Dist: transp_tindex, climate_hru, transp_frost
      Potential ET: potet_hamon, potet_jh, potet_pan, climate_hru,
                    potet_hs, potet_pt, potet_pm, potet_pm_sta
      Interception: intcp
Snow & Glacr Dynam: snowcomp, glacr_melt
    Surface Runoff: srunoff_smidx, srunoff_carea
         Soil Zone: soilzone, soilzone_ag
       Groundwater: gwflow
Streamflow Routing: strmflow, strmflow_in_out, muskingum,
                    muskingum_lake, muskingum_mann, segment_to_hru
Streamflow Charact: strmflow_character
Stream Temperature: stream_temp
    Output Summary: basin_sum, subbasin, map_results, prms_summary,
                    nhru_summary, nsub_summary, water_balance
                    basin_summary, nsegment_summary, statvar_out
     Preprocessing: write_climate_hru, frost_date
--------------------------------------------------------------------

Github Commit Hash b7b217f master branch

Execution start date and time (yyyy/mm/dd hh:mm:ss) 2024/08/14  7:43:22


==========================================================================
Please give careful consideration to fixing all ERROR and WARNING messages
==========================================================================


--------------------------------------------------------------------
    Active modules listed in the order in which they are called
--------------------------------------------------------------------
        Process                    Module         Version Date
==============================================================
PRMS Computation Order          gsflow_prms         2024-09-01
Read Control File               read_control_file   2024-08-01
Read Parameter File             read_parameter_file 2024-06-21
Read Data File                  read_data_file      2023-06-02
Basin Definition                basin               2024-08-09
Common States and Fluxes        climateflow         2024-08-09
Potential Solar Radiation       soltab              2024-01-22
Time Series Data                obs                 2023-11-01
Timestep Control                prms_time           2023-11-01
Time Series Data                dynamic_soil_param  2024-08-09
Temperature Distribution        climate_hru         2024-08-09
Precipitation Distribution      climate_hru         2024-08-09
Solar Radiation Distribution    climate_hru         2024-08-09
Potential Evapotranspiration    climate_hru         2024-08-09
Transpiration Distribution      transp_tindex       2023-11-01
Canopy Interception             intcp               2024-04-04
Snow Dynamics                   snowcomp            2024-04-30
Surface Runoff                  srunoff_smidx       2024-04-04
Soilzone Computations           soilzone            2024-06-20
Groundwater                     gwflow              2024-05-30
Streamflow Routing Init         routing             2024-08-13
Streamflow Routing              muskingum           2023-11-01
Output Summary                  basin_sum           2024-04-30
Water Balance Computations      water_balance       2024-04-04
Output Summary                  nhru_summary        2024-04-04
Statistics Variables Output     statvar_out         2021-09-08
Output Summary                  prms_summary        2024-04-30
WARNING, parameter: poi_type is ignored as it is not used
WARNING, parameter: basin_area is ignored as it is not used
==============================================================

Using Control File: .\control\control

Using Parameter File: ./input/params

Writing PRMS Water Budget File: ./output/model.out

A summary of dynamic parameter events are written to file:
dynamic_soil_parameter.out


 WARNING, pref_flow_infil_frac not specified, substituting pref_flow_den
  
 WARNING, parameter: pref_flow_infil_frac is not specified
          Set to default value:  -1.000000    

Simulation time period: 1980/01/01 - 1999/12/31

==========================================================================


                          =========================
                          Normal completion of PRMS
                          =========================


Execution start date and time (yyyy/mm/dd hh:mm:ss) 2024/08/14  7:43:22


Execution end   date and time (yyyy/mm/dd hh:mm:ss) 2024/08/14  7:43:23

Execution elapsed time    0 minutes  1.22 seconds

